/*---------------------------------------------------------------------------*\
| =========                 |                                                 |
| \\      /  F ield         | foam-extend: Open Source CFD                    |
|  \\    /   O peration     | Version:     4.0                                |
|   \\  /    A nd           | Web:         http://www.foam-extend.org         |
|    \\/     M anipulation  | For copyright notice see file Copyright         |
\*---------------------------------------------------------------------------*/
Build    : 4.0-268bb07d15d8
Exec     : pimpleDyMFoam
Date     : May 16 2019
Time     : 10:07:13
Host     : magnus-ThinkPad-X240
PID      : 8431
CtrlDict : "/home/magnus/foam/magnus-4.0/MA/axialTurbine/system/controlDict"
Case     : /home/magnus/foam/magnus-4.0/MA/axialTurbine
nProcs   : 1
SigFpe   : Enabling floating point exception trapping (FOAM_SIGFPE).

// * * * * * * * * * * * * * * * * * * * * * * * * * * * * * * * * * * * * * //
Create time

Create dynamic mesh for time = 0

Selecting dynamicFvMesh turboFvMesh
Initializing the GGI interpolator between master/shadow patches: GVCYCLIC1/GVCYCLIC2
Initializing the GGI interpolator between master/shadow patches: RUCYCLIC1/RUCYCLIC2
Initializing the GGI interpolator between master/shadow patches: DTCYCLIC1/DTCYCLIC2
Turbomachine Mixer mesh:
    origin: (0 0 0)
    axis  : (0 0 1)

PIMPLE: no residual control data found. Calculations will employ 10 corrector loops

Reading field p

Reading field U

Reading/calculating face flux field phi

Selecting incompressible transport model Newtonian
Selecting turbulence model type RASModel
Selecting RAS turbulence model kOmegaSSTRC
kOmegaSSTRCCoeffs
{
    spalartShurCorrection true;
    Arollabifurcation false;
    DhakalAndWalters false;
    alphaK1         0.85;
    alphaK2         1;
    alphaOmega1     0.5;
    alphaOmega2     0.856;
    gamma1          0.555556;
    gamma2          0.44;
    beta1           0.075;
    beta2           0.0828;
    betaStar        0.09;
    a1              0.31;
    b1              1;
    c1              10;
    F3              false;
    Cr1             1;
    Cr2             2;
    Cr3             1;
}

Reading field aU if present


Starting time loop

Courant Number mean: 0.0645151 max: 0.35 velocity magnitude: 1
Time = 0.00175

Moving Cell Zone Name: rotor rpm: -95.4958
volume continuity errors : volume = 0.00198438, max error = 4.78243e-12, sum local = 1.26345e-15, global = -1.73312e-18
Courant Number mean: 0.0645151 max: 0.35 velocity magnitude: 1
PIMPLE: iteration 1
BiCGStab:  Solving for Ux, Initial residual = 1, Final residual = 0.0105518, No Iterations 1
BiCGStab:  Solving for Uy, Initial residual = 1, Final residual = 0.0173243, No Iterations 1
BiCGStab:  Solving for Uz, Initial residual = 1, Final residual = 0.0128592, No Iterations 1
DICPCG:  Solving for p, Initial residual = 1, Final residual = 0.00753682, No Iterations 43
DICPCG:  Solving for p, Initial residual = 0.345319, Final residual = 0.00278102, No Iterations 28
Moving mesh time step continuity errors : sum local = 5.67462e-05, global = 4.41909e-07, cumulative = 4.41909e-07
BiCGStab:  Solving for omega, Initial residual = 0.216171, Final residual = 0.0034432, No Iterations 1
BiCGStab:  Solving for k, Initial residual = 1, Final residual = 0.0174023, No Iterations 1
PIMPLE: iteration 2
BiCGStab:  Solving for Ux, Initial residual = 0.956762, Final residual = 0.00387415, No Iterations 1
BiCGStab:  Solving for Uy, Initial residual = 0.960508, Final residual = 0.00373886, No Iterations 1
BiCGStab:  Solving for Uz, Initial residual = 0.953821, Final residual = 0.00565095, No Iterations 1
DICPCG:  Solving for p, Initial residual = 0.760229, Final residual = 0.00708444, No Iterations 24
DICPCG:  Solving for p, Initial residual = 0.303782, Final residual = 0.00290901, No Iterations 46
Moving mesh time step continuity errors : sum local = 0.000525145, global = -5.73471e-06, cumulative = -5.2928e-06
BiCGStab:  Solving for omega, Initial residual = 0.0646807, Final residual = 4.35832e-05, No Iterations 1
BiCGStab:  Solving for k, Initial residual = 0.773906, Final residual = 0.00172161, No Iterations 1
PIMPLE: iteration 3
BiCGStab:  Solving for Ux, Initial residual = 0.0834051, Final residual = 0.000135948, No Iterations 1
BiCGStab:  Solving for Uy, Initial residual = 0.0614162, Final residual = 6.74994e-05, No Iterations 1
BiCGStab:  Solving for Uz, Initial residual = 0.0763921, Final residual = 0.000207947, No Iterations 1
DICPCG:  Solving for p, Initial residual = 0.776161, Final residual = 0.00710573, No Iterations 29
DICPCG:  Solving for p, Initial residual = 0.310635, Final residual = 0.00215985, No Iterations 46
Moving mesh time step continuity errors : sum local = 0.000380138, global = 5.33289e-06, cumulative = 4.00954e-08
BiCGStab:  Solving for omega, Initial residual = 0.0277078, Final residual = 2.61196e-05, No Iterations 1
bounding omega, min: -3.90078 max: 1120.8 average: 292.877
BiCGStab:  Solving for k, Initial residual = 0.128072, Final residual = 0.0001161, No Iterations 1
PIMPLE: iteration 4
BiCGStab:  Solving for Ux, Initial residual = 0.0801698, Final residual = 9.4208e-05, No Iterations 1
BiCGStab:  Solving for Uy, Initial residual = 0.0649679, Final residual = 5.79562e-05, No Iterations 1
BiCGStab:  Solving for Uz, Initial residual = 0.0930843, Final residual = 0.000222289, No Iterations 1
DICPCG:  Solving for p, Initial residual = 0.739247, Final residual = 0.00711092, No Iterations 27
DICPCG:  Solving for p, Initial residual = 0.29925, Final residual = 0.00287211, No Iterations 45
Moving mesh time step continuity errors : sum local = 0.000350185, global = 6.33243e-06, cumulative = 6.37253e-06
BiCGStab:  Solving for omega, Initial residual = 0.0109521, Final residual = 1.47868e-05, No Iterations 1
bounding omega, min: -11.7646 max: 1121.19 average: 284.393
BiCGStab:  Solving for k, Initial residual = 0.0818695, Final residual = 9.36037e-05, No Iterations 1
PIMPLE: iteration 5
BiCGStab:  Solving for Ux, Initial residual = 0.0860461, Final residual = 0.000164943, No Iterations 1
BiCGStab:  Solving for Uy, Initial residual = 0.0734633, Final residual = 0.000102571, No Iterations 1
BiCGStab:  Solving for Uz, Initial residual = 0.106972, Final residual = 0.000360794, No Iterations 1
DICPCG:  Solving for p, Initial residual = 0.710286, Final residual = 0.00592239, No Iterations 24
DICPCG:  Solving for p, Initial residual = 0.270433, Final residual = 0.00243818, No Iterations 45
Moving mesh time step continuity errors : sum local = 0.000189746, global = 3.26895e-06, cumulative = 9.64147e-06
BiCGStab:  Solving for omega, Initial residual = 0.00591937, Final residual = 1.06086e-05, No Iterations 1
bounding omega, min: -6.36442 max: 1101.2 average: 281.123
BiCGStab:  Solving for k, Initial residual = 0.053812, Final residual = 8.53723e-05, No Iterations 1
PIMPLE: iteration 6
BiCGStab:  Solving for Ux, Initial residual = 0.0855114, Final residual = 0.000238754, No Iterations 1
BiCGStab:  Solving for Uy, Initial residual = 0.0724966, Final residual = 0.000140236, No Iterations 1
BiCGStab:  Solving for Uz, Initial residual = 0.112168, Final residual = 0.000410769, No Iterations 1
DICPCG:  Solving for p, Initial residual = 0.666762, Final residual = 0.00650634, No Iterations 16
DICPCG:  Solving for p, Initial residual = 0.234753, Final residual = 0.00215235, No Iterations 45
Moving mesh time step continuity errors : sum local = 0.000121909, global = 2.01805e-06, cumulative = 1.16595e-05
BiCGStab:  Solving for omega, Initial residual = 0.00462497, Final residual = 6.95769e-06, No Iterations 1
bounding omega, min: -9.78686 max: 1093.2 average: 280.988
BiCGStab:  Solving for k, Initial residual = 0.0315214, Final residual = 6.45505e-05, No Iterations 1
PIMPLE: iteration 7
BiCGStab:  Solving for Ux, Initial residual = 0.0782807, Final residual = 0.000251333, No Iterations 1
BiCGStab:  Solving for Uy, Initial residual = 0.0679747, Final residual = 0.000135254, No Iterations 1
BiCGStab:  Solving for Uz, Initial residual = 0.116599, Final residual = 0.000426794, No Iterations 1
DICPCG:  Solving for p, Initial residual = 0.596807, Final residual = 0.00534929, No Iterations 11
DICPCG:  Solving for p, Initial residual = 0.17803, Final residual = 0.00104875, No Iterations 46
Moving mesh time step continuity errors : sum local = 4.61529e-05, global = 7.8993e-07, cumulative = 1.24495e-05
BiCGStab:  Solving for omega, Initial residual = 0.00391751, Final residual = 6.12188e-06, No Iterations 1
bounding omega, min: -7.21884 max: 1092.12 average: 281.646
BiCGStab:  Solving for k, Initial residual = 0.0215541, Final residual = 5.63985e-05, No Iterations 1
PIMPLE: iteration 8
BiCGStab:  Solving for Ux, Initial residual = 0.068573, Final residual = 0.000246268, No Iterations 1
BiCGStab:  Solving for Uy, Initial residual = 0.0603462, Final residual = 0.000141054, No Iterations 1
BiCGStab:  Solving for Uz, Initial residual = 0.117043, Final residual = 0.000560118, No Iterations 1
DICPCG:  Solving for p, Initial residual = 0.509489, Final residual = 0.00372129, No Iterations 10
DICPCG:  Solving for p, Initial residual = 0.122593, Final residual = 0.00108326, No Iterations 45
Moving mesh time step continuity errors : sum local = 3.97433e-05, global = 6.79048e-07, cumulative = 1.31285e-05
BiCGStab:  Solving for omega, Initial residual = 0.00314147, Final residual = 6.13879e-06, No Iterations 1
bounding omega, min: -13.4015 max: 1091.51 average: 282.549
BiCGStab:  Solving for k, Initial residual = 0.0149072, Final residual = 5.06539e-05, No Iterations 1
PIMPLE: iteration 9
BiCGStab:  Solving for Ux, Initial residual = 0.0566369, Final residual = 0.000237156, No Iterations 1
BiCGStab:  Solving for Uy, Initial residual = 0.0483506, Final residual = 0.000129103, No Iterations 1
BiCGStab:  Solving for Uz, Initial residual = 0.0859428, Final residual = 0.000573351, No Iterations 1
DICPCG:  Solving for p, Initial residual = 0.400087, Final residual = 0.00321012, No Iterations 10
DICPCG:  Solving for p, Initial residual = 0.0857634, Final residual = 0.000594113, No Iterations 43
Moving mesh time step continuity errors : sum local = 1.95426e-05, global = -6.4086e-07, cumulative = 1.24876e-05
BiCGStab:  Solving for omega, Initial residual = 0.00238471, Final residual = 6.53689e-06, No Iterations 1
bounding omega, min: -4.18775 max: 1091.11 average: 283.324
BiCGStab:  Solving for k, Initial residual = 0.0105564, Final residual = 4.1962e-05, No Iterations 1
PIMPLE: iteration 10
BiCGStab:  Solving for Ux, Initial residual = 0.0428505, Final residual = 1.02984e-08, No Iterations 3
BiCGStab:  Solving for Uy, Initial residual = 0.0348908, Final residual = 8.69675e-07, No Iterations 2
BiCGStab:  Solving for Uz, Initial residual = 0.0539958, Final residual = 4.80862e-08, No Iterations 3
DICPCG:  Solving for p, Initial residual = 0.296007, Final residual = 0.00249915, No Iterations 10
DICPCG:  Solving for p, Initial residual = 0.0624087, Final residual = 0.000612628, No Iterations 41
Moving mesh time step continuity errors : sum local = 1.90249e-05, global = 3.77857e-07, cumulative = 1.28655e-05
BiCGStab:  Solving for omega, Initial residual = 0.00174694, Final residual = 5.9545e-06, No Iterations 1
bounding omega, min: -8.73812 max: 1090.85 average: 283.92
BiCGStab:  Solving for k, Initial residual = 0.00776678, Final residual = 3.68385e-05, No Iterations 1
ExecutionTime = 0.54 s  ClockTime = 0 s

Courant Number mean: 0.0546056 max: 0.380844 velocity magnitude: 2.14507
Time = 0.0035

volume continuity errors : volume = 0.00198438, max error = 3.47888e-12, sum local = 1.0338e-15, global = -1.29261e-17
Courant Number mean: 0.0646139 max: 0.380844 velocity magnitude: 2.14507
PIMPLE: iteration 1
BiCGStab:  Solving for Ux, Initial residual = 0.108876, Final residual = 0.000460965, No Iterations 1
BiCGStab:  Solving for Uy, Initial residual = 0.110654, Final residual = 0.000401211, No Iterations 1
BiCGStab:  Solving for Uz, Initial residual = 0.166387, Final residual = 0.000797003, No Iterations 1
DICPCG:  Solving for p, Initial residual = 0.0883421, Final residual = 0.000813948, No Iterations 43
DICPCG:  Solving for p, Initial residual = 0.0561165, Final residual = 0.000501819, No Iterations 44
Moving mesh time step continuity errors : sum local = 1.28574e-05, global = -4.75182e-08, cumulative = 1.2818e-05
BiCGStab:  Solving for omega, Initial residual = 0.0166992, Final residual = 6.02523e-05, No Iterations 1
BiCGStab:  Solving for k, Initial residual = 0.120272, Final residual = 0.000190064, No Iterations 1
PIMPLE: iteration 2
BiCGStab:  Solving for Ux, Initial residual = 0.0296622, Final residual = 0.00010374, No Iterations 1
BiCGStab:  Solving for Uy, Initial residual = 0.029934, Final residual = 7.88504e-05, No Iterations 1
BiCGStab:  Solving for Uz, Initial residual = 0.0341386, Final residual = 0.000173482, No Iterations 1
DICPCG:  Solving for p, Initial residual = 0.0966597, Final residual = 0.000813999, No Iterations 44
DICPCG:  Solving for p, Initial residual = 0.0766636, Final residual = 0.000557567, No Iterations 45
Moving mesh time step continuity errors : sum local = 1.45417e-05, global = -9.33701e-08, cumulative = 1.27246e-05
BiCGStab:  Solving for omega, Initial residual = 0.00434896, Final residual = 1.38918e-05, No Iterations 1
bounding omega, min: -0.654784 max: 1051.64 average: 289.214
BiCGStab:  Solving for k, Initial residual = 0.0381713, Final residual = 6.10508e-05, No Iterations 1
PIMPLE: iteration 3
BiCGStab:  Solving for Ux, Initial residual = 0.00957725, Final residual = 3.5669e-05, No Iterations 1
BiCGStab:  Solving for Uy, Initial residual = 0.00734128, Final residual = 2.60761e-05, No Iterations 1
BiCGStab:  Solving for Uz, Initial residual = 0.011409, Final residual = 4.92239e-05, No Iterations 1
DICPCG:  Solving for p, Initial residual = 0.0780533, Final residual = 0.000564456, No Iterations 44
DICPCG:  Solving for p, Initial residual = 0.0622886, Final residual = 0.000515424, No Iterations 45
Moving mesh time step continuity errors : sum local = 1.3004e-05, global = -9.14223e-08, cumulative = 1.26332e-05
BiCGStab:  Solving for omega, Initial residual = 0.00159347, Final residual = 5.28162e-06, No Iterations 1
BiCGStab:  Solving for k, Initial residual = 0.015089, Final residual = 3.22795e-05, No Iterations 1
PIMPLE: iteration 4
BiCGStab:  Solving for Ux, Initial residual = 0.00716167, Final residual = 1.78003e-05, No Iterations 1
BiCGStab:  Solving for Uy, Initial residual = 0.00551783, Final residual = 1.43961e-05, No Iterations 1
BiCGStab:  Solving for Uz, Initial residual = 0.0102373, Final residual = 3.64543e-05, No Iterations 1
DICPCG:  Solving for p, Initial residual = 0.0585783, Final residual = 0.000556076, No Iterations 40
DICPCG:  Solving for p, Initial residual = 0.044198, Final residual = 0.000392815, No Iterations 45
Moving mesh time step continuity errors : sum local = 9.62632e-06, global = -9.94511e-08, cumulative = 1.25337e-05
BiCGStab:  Solving for omega, Initial residual = 0.000745784, Final residual = 2.40438e-06, No Iterations 1
bounding omega, min: -0.488111 max: 1041.42 average: 286.477
BiCGStab:  Solving for k, Initial residual = 0.0068798, Final residual = 2.02472e-05, No Iterations 1
PIMPLE: iteration 5
BiCGStab:  Solving for Ux, Initial residual = 0.00617687, Final residual = 1.72552e-05, No Iterations 1
BiCGStab:  Solving for Uy, Initial residual = 0.0054333, Final residual = 1.10966e-05, No Iterations 1
BiCGStab:  Solving for Uz, Initial residual = 0.00786911, Final residual = 2.92431e-05, No Iterations 1
DICPCG:  Solving for p, Initial residual = 0.0444955, Final residual = 0.000385701, No Iterations 39
DICPCG:  Solving for p, Initial residual = 0.0291222, Final residual = 0.000258653, No Iterations 45
Moving mesh time step continuity errors : sum local = 6.22333e-06, global = -1.03134e-07, cumulative = 1.24306e-05
BiCGStab:  Solving for omega, Initial residual = 0.000423416, Final residual = 1.49074e-06, No Iterations 1
BiCGStab:  Solving for k, Initial residual = 0.00352716, Final residual = 1.25626e-05, No Iterations 1
PIMPLE: iteration 6
BiCGStab:  Solving for Ux, Initial residual = 0.0046868, Final residual = 1.37015e-05, No Iterations 1
BiCGStab:  Solving for Uy, Initial residual = 0.00427409, Final residual = 9.19893e-06, No Iterations 1
BiCGStab:  Solving for Uz, Initial residual = 0.00557043, Final residual = 2.27593e-05, No Iterations 1
DICPCG:  Solving for p, Initial residual = 0.033865, Final residual = 0.000337242, No Iterations 40
DICPCG:  Solving for p, Initial residual = 0.0193784, Final residual = 0.000149694, No Iterations 45
Moving mesh time step continuity errors : sum local = 3.56466e-06, global = -7.86821e-08, cumulative = 1.23519e-05
BiCGStab:  Solving for omega, Initial residual = 0.000267586, Final residual = 9.75301e-07, No Iterations 1
bounding omega, min: -0.0790675 max: 1040.75 average: 286.276
BiCGStab:  Solving for k, Initial residual = 0.00197773, Final residual = 7.21603e-06, No Iterations 1
PIMPLE: iteration 7
BiCGStab:  Solving for Ux, Initial residual = 0.00320695, Final residual = 1.00191e-05, No Iterations 1
BiCGStab:  Solving for Uy, Initial residual = 0.00294169, Final residual = 6.62949e-06, No Iterations 1
BiCGStab:  Solving for Uz, Initial residual = 0.0038397, Final residual = 1.60915e-05, No Iterations 1
DICPCG:  Solving for p, Initial residual = 0.0255971, Final residual = 0.000194204, No Iterations 44
DICPCG:  Solving for p, Initial residual = 0.013297, Final residual = 0.000120881, No Iterations 44
Moving mesh time step continuity errors : sum local = 2.86288e-06, global = -5.09179e-08, cumulative = 1.2301e-05
BiCGStab:  Solving for omega, Initial residual = 0.000174227, Final residual = 6.26594e-07, No Iterations 1
BiCGStab:  Solving for k, Initial residual = 0.0011958, Final residual = 4.18677e-06, No Iterations 1
PIMPLE: iteration 8
BiCGStab:  Solving for Ux, Initial residual = 0.0020842, Final residual = 7.78346e-06, No Iterations 1
BiCGStab:  Solving for Uy, Initial residual = 0.00185689, Final residual = 4.44308e-06, No Iterations 1
BiCGStab:  Solving for Uz, Initial residual = 0.00256856, Final residual = 1.01987e-05, No Iterations 1
DICPCG:  Solving for p, Initial residual = 0.0192927, Final residual = 0.000150743, No Iterations 44
DICPCG:  Solving for p, Initial residual = 0.00945439, Final residual = 6.53966e-05, No Iterations 41
Moving mesh time step continuity errors : sum local = 1.54446e-06, global = -5.14835e-08, cumulative = 1.22495e-05
BiCGStab:  Solving for omega, Initial residual = 0.000109357, Final residual = 3.89171e-07, No Iterations 1
BiCGStab:  Solving for k, Initial residual = 0.000767464, Final residual = 2.64787e-06, No Iterations 1
PIMPLE: iteration 9
BiCGStab:  Solving for Ux, Initial residual = 0.00133391, Final residual = 6.26612e-06, No Iterations 1
BiCGStab:  Solving for Uy, Initial residual = 0.0011187, Final residual = 2.85226e-06, No Iterations 1
BiCGStab:  Solving for Uz, Initial residual = 0.0017112, Final residual = 6.28247e-06, No Iterations 1
DICPCG:  Solving for p, Initial residual = 0.0145907, Final residual = 0.000136627, No Iterations 37
DICPCG:  Solving for p, Initial residual = 0.00706532, Final residual = 6.70503e-05, No Iterations 43
Moving mesh time step continuity errors : sum local = 1.58136e-06, global = -6.82804e-08, cumulative = 1.21812e-05
BiCGStab:  Solving for omega, Initial residual = 6.722e-05, Final residual = 2.38105e-07, No Iterations 1
bounding omega, min: -0.0922247 max: 1040.74 average: 286.318
BiCGStab:  Solving for k, Initial residual = 0.000506006, Final residual = 1.89152e-06, No Iterations 1
PIMPLE: iteration 10
BiCGStab:  Solving for Ux, Initial residual = 0.000873651, Final residual = 2.3338e-08, No Iterations 2
BiCGStab:  Solving for Uy, Initial residual = 0.000664551, Final residual = 1.56003e-08, No Iterations 2
BiCGStab:  Solving for Uz, Initial residual = 0.00112772, Final residual = 4.48987e-08, No Iterations 2
DICPCG:  Solving for p, Initial residual = 0.011168, Final residual = 0.000105058, No Iterations 43
DICPCG:  Solving for p, Initial residual = 0.00542553, Final residual = 5.07473e-05, No Iterations 43
Moving mesh time step continuity errors : sum local = 1.19565e-06, global = -4.72587e-08, cumulative = 1.2134e-05
BiCGStab:  Solving for omega, Initial residual = 4.21281e-05, Final residual = 2.17477e-07, No Iterations 1
BiCGStab:  Solving for k, Initial residual = 0.000336647, Final residual = 1.22352e-06, No Iterations 1
ExecutionTime = 1.06 s  ClockTime = 1 s

Courant Number mean: 0.0538425 max: 0.351376 velocity magnitude: 1.88775
Time = 0.00525

volume continuity errors : volume = 0.00198438, max error = 4.08031e-12, sum local = 7.83514e-16, global = 5.02071e-18
Courant Number mean: 0.0639387 max: 0.351376 velocity magnitude: 1.88775
PIMPLE: iteration 1
BiCGStab:  Solving for Ux, Initial residual = 0.0521535, Final residual = 0.000165545, No Iterations 1
BiCGStab:  Solving for Uy, Initial residual = 0.0548677, Final residual = 0.000155553, No Iterations 1
BiCGStab:  Solving for Uz, Initial residual = 0.0741988, Final residual = 0.000261721, No Iterations 1
DICPCG:  Solving for p, Initial residual = 0.0466267, Final residual = 0.000351922, No Iterations 44
DICPCG:  Solving for p, Initial residual = 0.0431117, Final residual = 0.00041107, No Iterations 44
Moving mesh time step continuity errors : sum local = 8.71123e-06, global = -5.4828e-08, cumulative = 1.20792e-05
BiCGStab:  Solving for omega, Initial residual = 0.0122895, Final residual = 2.97368e-05, No Iterations 1
BiCGStab:  Solving for k, Initial residual = 0.0730684, Final residual = 9.37426e-05, No Iterations 1
PIMPLE: iteration 2
BiCGStab:  Solving for Ux, Initial residual = 0.0117092, Final residual = 3.65991e-05, No Iterations 1
BiCGStab:  Solving for Uy, Initial residual = 0.0117296, Final residual = 2.68872e-05, No Iterations 1
BiCGStab:  Solving for Uz, Initial residual = 0.0138296, Final residual = 5.86739e-05, No Iterations 1
DICPCG:  Solving for p, Initial residual = 0.0548737, Final residual = 0.000522586, No Iterations 43
DICPCG:  Solving for p, Initial residual = 0.051114, Final residual = 0.000419647, No Iterations 45
Moving mesh time step continuity errors : sum local = 8.7862e-06, global = -4.08508e-09, cumulative = 1.20751e-05
BiCGStab:  Solving for omega, Initial residual = 0.00405994, Final residual = 9.90273e-06, No Iterations 1
BiCGStab:  Solving for k, Initial residual = 0.0253646, Final residual = 3.72725e-05, No Iterations 1
PIMPLE: iteration 3
BiCGStab:  Solving for Ux, Initial residual = 0.00361492, Final residual = 1.36791e-05, No Iterations 1
BiCGStab:  Solving for Uy, Initial residual = 0.00285696, Final residual = 1.02215e-05, No Iterations 1
BiCGStab:  Solving for Uz, Initial residual = 0.00509388, Final residual = 1.92064e-05, No Iterations 1
DICPCG:  Solving for p, Initial residual = 0.046048, Final residual = 0.000333619, No Iterations 38
DICPCG:  Solving for p, Initial residual = 0.0398847, Final residual = 0.000312683, No Iterations 45
Moving mesh time step continuity errors : sum local = 6.40749e-06, global = -1.08217e-08, cumulative = 1.20642e-05
BiCGStab:  Solving for omega, Initial residual = 0.0015103, Final residual = 3.74718e-06, No Iterations 1
BiCGStab:  Solving for k, Initial residual = 0.0102098, Final residual = 1.91448e-05, No Iterations 1
PIMPLE: iteration 4
BiCGStab:  Solving for Ux, Initial residual = 0.00263138, Final residual = 7.60973e-06, No Iterations 1
BiCGStab:  Solving for Uy, Initial residual = 0.0023484, Final residual = 5.37245e-06, No Iterations 1
BiCGStab:  Solving for Uz, Initial residual = 0.00402092, Final residual = 1.29481e-05, No Iterations 1
DICPCG:  Solving for p, Initial residual = 0.036429, Final residual = 0.000352915, No Iterations 42
DICPCG:  Solving for p, Initial residual = 0.0285231, Final residual = 0.000243239, No Iterations 45
Moving mesh time step continuity errors : sum local = 4.90181e-06, global = -2.13665e-08, cumulative = 1.20429e-05
BiCGStab:  Solving for omega, Initial residual = 0.000641389, Final residual = 1.55102e-06, No Iterations 1
BiCGStab:  Solving for k, Initial residual = 0.00455383, Final residual = 1.12718e-05, No Iterations 1
PIMPLE: iteration 5
BiCGStab:  Solving for Ux, Initial residual = 0.00230152, Final residual = 7.20739e-06, No Iterations 1
BiCGStab:  Solving for Uy, Initial residual = 0.00215313, Final residual = 3.76892e-06, No Iterations 1
BiCGStab:  Solving for Uz, Initial residual = 0.00300897, Final residual = 9.73636e-06, No Iterations 1
DICPCG:  Solving for p, Initial residual = 0.0284422, Final residual = 0.000273643, No Iterations 41
DICPCG:  Solving for p, Initial residual = 0.0197755, Final residual = 0.000140423, No Iterations 45
Moving mesh time step continuity errors : sum local = 2.79779e-06, global = -2.49061e-08, cumulative = 1.2018e-05
BiCGStab:  Solving for omega, Initial residual = 0.000307775, Final residual = 7.68329e-07, No Iterations 1
BiCGStab:  Solving for k, Initial residual = 0.00220642, Final residual = 6.35475e-06, No Iterations 1
PIMPLE: iteration 6
BiCGStab:  Solving for Ux, Initial residual = 0.00176426, Final residual = 6.30996e-06, No Iterations 1
BiCGStab:  Solving for Uy, Initial residual = 0.00164451, Final residual = 2.88462e-06, No Iterations 1
BiCGStab:  Solving for Uz, Initial residual = 0.00218317, Final residual = 7.71079e-06, No Iterations 1
DICPCG:  Solving for p, Initial residual = 0.0219454, Final residual = 0.000215658, No Iterations 38
DICPCG:  Solving for p, Initial residual = 0.013686, Final residual = 9.77815e-05, No Iterations 45
Moving mesh time step continuity errors : sum local = 1.93399e-06, global = -2.8273e-08, cumulative = 1.19897e-05
BiCGStab:  Solving for omega, Initial residual = 0.000163583, Final residual = 4.15757e-07, No Iterations 1
BiCGStab:  Solving for k, Initial residual = 0.00115478, Final residual = 3.38175e-06, No Iterations 1
PIMPLE: iteration 7
BiCGStab:  Solving for Ux, Initial residual = 0.00123966, Final residual = 5.27674e-06, No Iterations 1
BiCGStab:  Solving for Uy, Initial residual = 0.00112132, Final residual = 2.05516e-06, No Iterations 1
BiCGStab:  Solving for Uz, Initial residual = 0.00152403, Final residual = 5.53574e-06, No Iterations 1
DICPCG:  Solving for p, Initial residual = 0.0168533, Final residual = 0.000155779, No Iterations 42
DICPCG:  Solving for p, Initial residual = 0.00976864, Final residual = 9.07032e-05, No Iterations 43
Moving mesh time step continuity errors : sum local = 1.78582e-06, global = -9.14936e-09, cumulative = 1.19806e-05
BiCGStab:  Solving for omega, Initial residual = 9.23409e-05, Final residual = 2.3527e-07, No Iterations 1
BiCGStab:  Solving for k, Initial residual = 0.000642951, Final residual = 1.82841e-06, No Iterations 1
PIMPLE: iteration 8
BiCGStab:  Solving for Ux, Initial residual = 0.000847886, Final residual = 3.91592e-06, No Iterations 1
BiCGStab:  Solving for Uy, Initial residual = 0.000718478, Final residual = 1.46469e-06, No Iterations 1
BiCGStab:  Solving for Uz, Initial residual = 0.0010417, Final residual = 3.62282e-06, No Iterations 1
DICPCG:  Solving for p, Initial residual = 0.0130183, Final residual = 0.000125724, No Iterations 43
DICPCG:  Solving for p, Initial residual = 0.00726265, Final residual = 6.80804e-05, No Iterations 37
Moving mesh time step continuity errors : sum local = 1.33649e-06, global = 3.22389e-08, cumulative = 1.20128e-05
BiCGStab:  Solving for omega, Initial residual = 5.27753e-05, Final residual = 1.33665e-07, No Iterations 1
BiCGStab:  Solving for k, Initial residual = 0.000375571, Final residual = 1.00609e-06, No Iterations 1
PIMPLE: iteration 9
BiCGStab:  Solving for Ux, Initial residual = 0.000592394, Final residual = 2.69695e-06, No Iterations 1
BiCGStab:  Solving for Uy, Initial residual = 0.000448459, Final residual = 1.14223e-06, No Iterations 1
BiCGStab:  Solving for Uz, Initial residual = 0.000710598, Final residual = 2.33099e-06, No Iterations 1
DICPCG:  Solving for p, Initial residual = 0.010079, Final residual = 7.20476e-05, No Iterations 35
DICPCG:  Solving for p, Initial residual = 0.0055711, Final residual = 4.00272e-05, No Iterations 41
Moving mesh time step continuity errors : sum local = 7.84204e-07, global = 9.66098e-09, cumulative = 1.20225e-05
BiCGStab:  Solving for omega, Initial residual = 3.03317e-05, Final residual = 7.56404e-08, No Iterations 1
BiCGStab:  Solving for k, Initial residual = 0.000226612, Final residual = 5.76032e-07, No Iterations 1
PIMPLE: iteration 10
BiCGStab:  Solving for Ux, Initial residual = 0.000431746, Final residual = 9.94127e-09, No Iterations 2
BiCGStab:  Solving for Uy, Initial residual = 0.000282225, Final residual = 9.67214e-07, No Iterations 1
BiCGStab:  Solving for Uz, Initial residual = 0.000485962, Final residual = 1.15802e-08, No Iterations 2
DICPCG:  Solving for p, Initial residual = 0.00784609, Final residual = 6.22021e-05, No Iterations 43
DICPCG:  Solving for p, Initial residual = 0.00443012, Final residual = 4.26324e-05, No Iterations 41
Moving mesh time step continuity errors : sum local = 8.34026e-07, global = 2.58652e-08, cumulative = 1.20483e-05
BiCGStab:  Solving for omega, Initial residual = 1.73932e-05, Final residual = 4.21468e-08, No Iterations 1
BiCGStab:  Solving for k, Initial residual = 0.000142237, Final residual = 3.63448e-07, No Iterations 1
ExecutionTime = 1.58 s  ClockTime = 1 s

Courant Number mean: 0.053523 max: 0.351789 velocity magnitude: 1.73748
Time = 0.007

volume continuity errors : volume = 0.00198438, max error = 3.76807e-12, sum local = 6.01882e-16, global = 1.52125e-19
Courant Number mean: 0.063638 max: 0.351789 velocity magnitude: 1.73748
PIMPLE: iteration 1
BiCGStab:  Solving for Ux, Initial residual = 0.0323319, Final residual = 8.94365e-05, No Iterations 1
BiCGStab:  Solving for Uy, Initial residual = 0.0325217, Final residual = 8.31115e-05, No Iterations 1
BiCGStab:  Solving for Uz, Initial residual = 0.0409908, Final residual = 0.000127693, No Iterations 1
DICPCG:  Solving for p, Initial residual = 0.0403825, Final residual = 0.000316162, No Iterations 44
DICPCG:  Solving for p, Initial residual = 0.0301901, Final residual = 0.000210977, No Iterations 45
Moving mesh time step continuity errors : sum local = 3.81489e-06, global = 2.08666e-08, cumulative = 1.20692e-05
BiCGStab:  Solving for omega, Initial residual = 0.00997051, Final residual = 1.93504e-05, No Iterations 1
BiCGStab:  Solving for k, Initial residual = 0.0532067, Final residual = 6.21665e-05, No Iterations 1
PIMPLE: iteration 2
BiCGStab:  Solving for Ux, Initial residual = 0.00672143, Final residual = 2.17119e-05, No Iterations 1
BiCGStab:  Solving for Uy, Initial residual = 0.00622881, Final residual = 1.44994e-05, No Iterations 1
BiCGStab:  Solving for Uz, Initial residual = 0.00762078, Final residual = 2.98739e-05, No Iterations 1
DICPCG:  Solving for p, Initial residual = 0.042842, Final residual = 0.000413414, No Iterations 42
DICPCG:  Solving for p, Initial residual = 0.034016, Final residual = 0.000252005, No Iterations 45
Moving mesh time step continuity errors : sum local = 4.5059e-06, global = 1.64847e-08, cumulative = 1.20857e-05
BiCGStab:  Solving for omega, Initial residual = 0.00348551, Final residual = 6.72122e-06, No Iterations 1
BiCGStab:  Solving for k, Initial residual = 0.0193378, Final residual = 2.60204e-05, No Iterations 1
PIMPLE: iteration 3
BiCGStab:  Solving for Ux, Initial residual = 0.00202971, Final residual = 8.76396e-06, No Iterations 1
BiCGStab:  Solving for Uy, Initial residual = 0.00153243, Final residual = 5.24833e-06, No Iterations 1
BiCGStab:  Solving for Uz, Initial residual = 0.00284306, Final residual = 9.81489e-06, No Iterations 1
DICPCG:  Solving for p, Initial residual = 0.0357428, Final residual = 0.000299157, No Iterations 41
DICPCG:  Solving for p, Initial residual = 0.0267078, Final residual = 0.00019456, No Iterations 45
Moving mesh time step continuity errors : sum local = 3.43502e-06, global = 4.63499e-09, cumulative = 1.20903e-05
BiCGStab:  Solving for omega, Initial residual = 0.00132454, Final residual = 2.43148e-06, No Iterations 1
BiCGStab:  Solving for k, Initial residual = 0.00784811, Final residual = 1.31028e-05, No Iterations 1
PIMPLE: iteration 4
BiCGStab:  Solving for Ux, Initial residual = 0.00126316, Final residual = 4.2344e-06, No Iterations 1
BiCGStab:  Solving for Uy, Initial residual = 0.0011165, Final residual = 2.57139e-06, No Iterations 1
BiCGStab:  Solving for Uz, Initial residual = 0.00190303, Final residual = 5.45193e-06, No Iterations 1
DICPCG:  Solving for p, Initial residual = 0.028452, Final residual = 0.000277333, No Iterations 41
DICPCG:  Solving for p, Initial residual = 0.019207, Final residual = 0.000136053, No Iterations 45
Moving mesh time step continuity errors : sum local = 2.37874e-06, global = -2.13657e-09, cumulative = 1.20882e-05
BiCGStab:  Solving for omega, Initial residual = 0.000547594, Final residual = 9.26758e-07, No Iterations 1
BiCGStab:  Solving for k, Initial residual = 0.00345177, Final residual = 6.99433e-06, No Iterations 1
PIMPLE: iteration 5
BiCGStab:  Solving for Ux, Initial residual = 0.00109326, Final residual = 3.89213e-06, No Iterations 1
BiCGStab:  Solving for Uy, Initial residual = 0.000999421, Final residual = 1.71218e-06, No Iterations 1
BiCGStab:  Solving for Uz, Initial residual = 0.00140767, Final residual = 3.89107e-06, No Iterations 1
DICPCG:  Solving for p, Initial residual = 0.0220294, Final residual = 0.00021674, No Iterations 39
DICPCG:  Solving for p, Initial residual = 0.0133973, Final residual = 8.80969e-05, No Iterations 45
Moving mesh time step continuity errors : sum local = 1.52994e-06, global = -7.61185e-09, cumulative = 1.20806e-05
BiCGStab:  Solving for omega, Initial residual = 0.000246329, Final residual = 4.15215e-07, No Iterations 1
BiCGStab:  Solving for k, Initial residual = 0.00162407, Final residual = 3.58708e-06, No Iterations 1
PIMPLE: iteration 6
BiCGStab:  Solving for Ux, Initial residual = 0.000861126, Final residual = 3.27195e-06, No Iterations 1
BiCGStab:  Solving for Uy, Initial residual = 0.000769997, Final residual = 1.31237e-06, No Iterations 1
BiCGStab:  Solving for Uz, Initial residual = 0.00105015, Final residual = 3.17107e-06, No Iterations 1
DICPCG:  Solving for p, Initial residual = 0.0167991, Final residual = 0.000162962, No Iterations 38
DICPCG:  Solving for p, Initial residual = 0.00939352, Final residual = 6.32276e-05, No Iterations 45
Moving mesh time step continuity errors : sum local = 1.09308e-06, global = -1.04625e-08, cumulative = 1.20701e-05
BiCGStab:  Solving for omega, Initial residual = 0.000118507, Final residual = 2.07413e-07, No Iterations 1
BiCGStab:  Solving for k, Initial residual = 0.000811711, Final residual = 1.77909e-06, No Iterations 1
PIMPLE: iteration 7
BiCGStab:  Solving for Ux, Initial residual = 0.000637792, Final residual = 2.45061e-06, No Iterations 1
BiCGStab:  Solving for Uy, Initial residual = 0.000537126, Final residual = 1.04792e-06, No Iterations 1
BiCGStab:  Solving for Uz, Initial residual = 0.00075138, Final residual = 2.32177e-06, No Iterations 1
DICPCG:  Solving for p, Initial residual = 0.0126839, Final residual = 0.000110602, No Iterations 43
DICPCG:  Solving for p, Initial residual = 0.00672848, Final residual = 6.11297e-05, No Iterations 44
Moving mesh time step continuity errors : sum local = 1.05366e-06, global = -1.80069e-08, cumulative = 1.20521e-05
BiCGStab:  Solving for omega, Initial residual = 6.01008e-05, Final residual = 1.09573e-07, No Iterations 1
BiCGStab:  Solving for k, Initial residual = 0.000426708, Final residual = 9.01907e-07, No Iterations 1
PIMPLE: iteration 8
BiCGStab:  Solving for Ux, Initial residual = 0.000474035, Final residual = 1.80684e-06, No Iterations 1
BiCGStab:  Solving for Uy, Initial residual = 0.000357892, Final residual = 8.85698e-07, No Iterations 1
BiCGStab:  Solving for Uz, Initial residual = 0.000524739, Final residual = 1.57336e-06, No Iterations 1
DICPCG:  Solving for p, Initial residual = 0.00952407, Final residual = 8.95622e-05, No Iterations 43
DICPCG:  Solving for p, Initial residual = 0.00491532, Final residual = 3.90551e-05, No Iterations 41
Moving mesh time step continuity errors : sum local = 6.71825e-07, global = -5.90884e-09, cumulative = 1.20462e-05
BiCGStab:  Solving for omega, Initial residual = 3.14077e-05, Final residual = 5.85997e-08, No Iterations 1
BiCGStab:  Solving for k, Initial residual = 0.000233721, Final residual = 4.72768e-07, No Iterations 1
PIMPLE: iteration 9
BiCGStab:  Solving for Ux, Initial residual = 0.000366305, Final residual = 1.37236e-06, No Iterations 1
BiCGStab:  Solving for Uy, Initial residual = 0.00023699, Final residual = 7.72023e-07, No Iterations 1
BiCGStab:  Solving for Uz, Initial residual = 0.000363841, Final residual = 1.04678e-06, No Iterations 1
DICPCG:  Solving for p, Initial residual = 0.00715429, Final residual = 6.32756e-05, No Iterations 43
DICPCG:  Solving for p, Initial residual = 0.00370411, Final residual = 2.6491e-05, No Iterations 41
Moving mesh time step continuity errors : sum local = 4.55044e-07, global = 2.79513e-08, cumulative = 1.20741e-05
BiCGStab:  Solving for omega, Initial residual = 1.68325e-05, Final residual = 3.20559e-08, No Iterations 1
BiCGStab:  Solving for k, Initial residual = 0.000132224, Final residual = 2.56915e-07, No Iterations 1
PIMPLE: iteration 10
BiCGStab:  Solving for Ux, Initial residual = 0.000295189, Final residual = 6.58599e-09, No Iterations 2
BiCGStab:  Solving for Uy, Initial residual = 0.000159855, Final residual = 6.59714e-07, No Iterations 1
BiCGStab:  Solving for Uz, Initial residual = 0.000251183, Final residual = 7.05799e-07, No Iterations 1
DICPCG:  Solving for p, Initial residual = 0.00541251, Final residual = 4.09989e-05, No Iterations 43
DICPCG:  Solving for p, Initial residual = 0.00283666, Final residual = 2.6128e-05, No Iterations 38
Moving mesh time step continuity errors : sum local = 4.48333e-07, global = -1.60112e-08, cumulative = 1.20581e-05
BiCGStab:  Solving for omega, Initial residual = 9.24758e-06, Final residual = 1.76555e-08, No Iterations 1
BiCGStab:  Solving for k, Initial residual = 7.85845e-05, Final residual = 1.51706e-07, No Iterations 1
ExecutionTime = 2.1 s  ClockTime = 2 s

Courant Number mean: 0.0533455 max: 0.352315 velocity magnitude: 1.63618
Time = 0.00875

volume continuity errors : volume = 0.00198438, max error = 3.18398e-12, sum local = 5.65155e-16, global = -7.87704e-18
Courant Number mean: 0.0634642 max: 0.352315 velocity magnitude: 1.63618
PIMPLE: iteration 1
BiCGStab:  Solving for Ux, Initial residual = 0.023856, Final residual = 6.31282e-05, No Iterations 1
BiCGStab:  Solving for Uy, Initial residual = 0.0219794, Final residual = 5.35308e-05, No Iterations 1
BiCGStab:  Solving for Uz, Initial residual = 0.0267018, Final residual = 8.04792e-05, No Iterations 1
DICPCG:  Solving for p, Initial residual = 0.0355713, Final residual = 0.000343619, No Iterations 43
DICPCG:  Solving for p, Initial residual = 0.0225993, Final residual = 0.000201363, No Iterations 44
Moving mesh time step continuity errors : sum local = 3.26257e-06, global = 1.84008e-08, cumulative = 1.20765e-05
BiCGStab:  Solving for omega, Initial residual = 0.00840152, Final residual = 1.33856e-05, No Iterations 1
BiCGStab:  Solving for k, Initial residual = 0.0421998, Final residual = 4.59846e-05, No Iterations 1
PIMPLE: iteration 2
BiCGStab:  Solving for Ux, Initial residual = 0.00473005, Final residual = 1.62395e-05, No Iterations 1
BiCGStab:  Solving for Uy, Initial residual = 0.00391971, Final residual = 9.63103e-06, No Iterations 1
BiCGStab:  Solving for Uz, Initial residual = 0.00516002, Final residual = 1.86218e-05, No Iterations 1
DICPCG:  Solving for p, Initial residual = 0.0362626, Final residual = 0.000333618, No Iterations 37
DICPCG:  Solving for p, Initial residual = 0.0258329, Final residual = 0.000160501, No Iterations 45
Moving mesh time step continuity errors : sum local = 2.57451e-06, global = 1.36149e-08, cumulative = 1.20901e-05
BiCGStab:  Solving for omega, Initial residual = 0.00299277, Final residual = 4.60287e-06, No Iterations 1
BiCGStab:  Solving for k, Initial residual = 0.0157767, Final residual = 1.9536e-05, No Iterations 1
PIMPLE: iteration 3
BiCGStab:  Solving for Ux, Initial residual = 0.00138064, Final residual = 6.50675e-06, No Iterations 1
BiCGStab:  Solving for Uy, Initial residual = 0.000969523, Final residual = 3.19636e-06, No Iterations 1
BiCGStab:  Solving for Uz, Initial residual = 0.00183139, Final residual = 5.96815e-06, No Iterations 1
DICPCG:  Solving for p, Initial residual = 0.0299405, Final residual = 0.000288066, No Iterations 41
DICPCG:  Solving for p, Initial residual = 0.0209444, Final residual = 0.000123616, No Iterations 45
Moving mesh time step continuity errors : sum local = 1.96547e-06, global = 9.36166e-09, cumulative = 1.20995e-05
BiCGStab:  Solving for omega, Initial residual = 0.00114508, Final residual = 1.59416e-06, No Iterations 1
BiCGStab:  Solving for k, Initial residual = 0.00644076, Final residual = 9.50389e-06, No Iterations 1
PIMPLE: iteration 4
BiCGStab:  Solving for Ux, Initial residual = 0.000775559, Final residual = 2.94061e-06, No Iterations 1
BiCGStab:  Solving for Uy, Initial residual = 0.000623772, Final residual = 1.46863e-06, No Iterations 1
BiCGStab:  Solving for Uz, Initial residual = 0.00105447, Final residual = 2.57688e-06, No Iterations 1
DICPCG:  Solving for p, Initial residual = 0.0235777, Final residual = 0.000214959, No Iterations 43
DICPCG:  Solving for p, Initial residual = 0.0158494, Final residual = 0.000151387, No Iterations 44
Moving mesh time step continuity errors : sum local = 2.39114e-06, global = 1.29346e-08, cumulative = 1.21124e-05
BiCGStab:  Solving for omega, Initial residual = 0.000465992, Final residual = 6.00349e-07, No Iterations 1
BiCGStab:  Solving for k, Initial residual = 0.00279988, Final residual = 4.71486e-06, No Iterations 1
PIMPLE: iteration 5
BiCGStab:  Solving for Ux, Initial residual = 0.000643813, Final residual = 2.3018e-06, No Iterations 1
BiCGStab:  Solving for Uy, Initial residual = 0.000549207, Final residual = 9.57074e-07, No Iterations 1
BiCGStab:  Solving for Uz, Initial residual = 0.00078198, Final residual = 1.88907e-06, No Iterations 1
DICPCG:  Solving for p, Initial residual = 0.0181636, Final residual = 0.000176935, No Iterations 38
DICPCG:  Solving for p, Initial residual = 0.011762, Final residual = 0.000108056, No Iterations 44
Moving mesh time step continuity errors : sum local = 1.69929e-06, global = 4.50312e-09, cumulative = 1.21169e-05
BiCGStab:  Solving for omega, Initial residual = 0.000202537, Final residual = 2.55685e-07, No Iterations 1
BiCGStab:  Solving for k, Initial residual = 0.00128797, Final residual = 2.26631e-06, No Iterations 1
PIMPLE: iteration 6
BiCGStab:  Solving for Ux, Initial residual = 0.000519703, Final residual = 1.91856e-06, No Iterations 1
BiCGStab:  Solving for Uy, Initial residual = 0.00043245, Final residual = 8.61106e-07, No Iterations 1
BiCGStab:  Solving for Uz, Initial residual = 0.000598563, Final residual = 1.5922e-06, No Iterations 1
DICPCG:  Solving for p, Initial residual = 0.0139572, Final residual = 0.000115868, No Iterations 40
DICPCG:  Solving for p, Initial residual = 0.00875341, Final residual = 7.50944e-05, No Iterations 44
Moving mesh time step continuity errors : sum local = 1.17719e-06, global = 2.4495e-09, cumulative = 1.21194e-05
BiCGStab:  Solving for omega, Initial residual = 9.22684e-05, Final residual = 1.19347e-07, No Iterations 1
BiCGStab:  Solving for k, Initial residual = 0.0006224, Final residual = 1.07392e-06, No Iterations 1
PIMPLE: iteration 7
BiCGStab:  Solving for Ux, Initial residual = 0.000407896, Final residual = 1.50768e-06, No Iterations 1
BiCGStab:  Solving for Uy, Initial residual = 0.000314691, Final residual = 7.67953e-07, No Iterations 1
BiCGStab:  Solving for Uz, Initial residual = 0.000441565, Final residual = 1.19582e-06, No Iterations 1
DICPCG:  Solving for p, Initial residual = 0.0107379, Final residual = 0.00010412, No Iterations 43
DICPCG:  Solving for p, Initial residual = 0.00658609, Final residual = 5.57481e-05, No Iterations 44
Moving mesh time step continuity errors : sum local = 8.7209e-07, global = 8.1694e-10, cumulative = 1.21202e-05
BiCGStab:  Solving for omega, Initial residual = 4.37376e-05, Final residual = 5.93878e-08, No Iterations 1
BiCGStab:  Solving for k, Initial residual = 0.000313918, Final residual = 5.24232e-07, No Iterations 1
PIMPLE: iteration 8
BiCGStab:  Solving for Ux, Initial residual = 0.000324156, Final residual = 1.18553e-06, No Iterations 1
BiCGStab:  Solving for Uy, Initial residual = 0.000222761, Final residual = 6.59776e-07, No Iterations 1
BiCGStab:  Solving for Uz, Initial residual = 0.000316499, Final residual = 8.37674e-07, No Iterations 1
DICPCG:  Solving for p, Initial residual = 0.00832159, Final residual = 7.73968e-05, No Iterations 43
DICPCG:  Solving for p, Initial residual = 0.00506599, Final residual = 4.00183e-05, No Iterations 44
Moving mesh time step continuity errors : sum local = 6.251e-07, global = 2.05831e-10, cumulative = 1.21204e-05
BiCGStab:  Solving for omega, Initial residual = 2.15366e-05, Final residual = 3.0857e-08, No Iterations 1
BiCGStab:  Solving for k, Initial residual = 0.000164547, Final residual = 2.64289e-07, No Iterations 1
PIMPLE: iteration 9
BiCGStab:  Solving for Ux, Initial residual = 0.000265978, Final residual = 9.58575e-07, No Iterations 1
BiCGStab:  Solving for Uy, Initial residual = 0.00015942, Final residual = 5.45566e-07, No Iterations 1
BiCGStab:  Solving for Uz, Initial residual = 0.000223628, Final residual = 5.79006e-07, No Iterations 1
DICPCG:  Solving for p, Initial residual = 0.00650541, Final residual = 5.39715e-05, No Iterations 43
DICPCG:  Solving for p, Initial residual = 0.00391855, Final residual = 2.9643e-05, No Iterations 44
Moving mesh time step continuity errors : sum local = 4.62542e-07, global = 2.52569e-10, cumulative = 1.21207e-05
BiCGStab:  Solving for omega, Initial residual = 1.10301e-05, Final residual = 1.69526e-08, No Iterations 1
BiCGStab:  Solving for k, Initial residual = 8.88784e-05, Final residual = 1.3794e-07, No Iterations 1
PIMPLE: iteration 10
BiCGStab:  Solving for Ux, Initial residual = 0.000226815, Final residual = 8.02205e-07, No Iterations 1
BiCGStab:  Solving for Uy, Initial residual = 0.000118185, Final residual = 4.49908e-07, No Iterations 1
BiCGStab:  Solving for Uz, Initial residual = 0.000157653, Final residual = 4.03464e-07, No Iterations 1
DICPCG:  Solving for p, Initial residual = 0.00513481, Final residual = 4.63834e-05, No Iterations 42
DICPCG:  Solving for p, Initial residual = 0.00308146, Final residual = 3.08072e-05, No Iterations 43
Moving mesh time step continuity errors : sum local = 4.80323e-07, global = -1.35936e-10, cumulative = 1.21205e-05
BiCGStab:  Solving for omega, Initial residual = 5.82078e-06, Final residual = 9.45103e-09, No Iterations 1
BiCGStab:  Solving for k, Initial residual = 5.0917e-05, Final residual = 7.68135e-08, No Iterations 1
ExecutionTime = 2.63 s  ClockTime = 2 s

Courant Number mean: 0.0532371 max: 0.352831 velocity magnitude: 1.56214
Time = 0.0105

volume continuity errors : volume = 0.00198438, max error = 2.99073e-12, sum local = 5.66205e-16, global = -5.53585e-18
Courant Number mean: 0.0633467 max: 0.352831 velocity magnitude: 1.56214
PIMPLE: iteration 1
BiCGStab:  Solving for Ux, Initial residual = 0.0193369, Final residual = 5.22849e-05, No Iterations 1
BiCGStab:  Solving for Uy, Initial residual = 0.0162505, Final residual = 3.96231e-05, No Iterations 1
BiCGStab:  Solving for Uz, Initial residual = 0.0202563, Final residual = 5.69426e-05, No Iterations 1
DICPCG:  Solving for p, Initial residual = 0.0324773, Final residual = 0.000310095, No Iterations 23
DICPCG:  Solving for p, Initial residual = 0.017442, Final residual = 0.000154279, No Iterations 44
Moving mesh time step continuity errors : sum local = 2.31309e-06, global = 8.42329e-09, cumulative = 1.21289e-05
BiCGStab:  Solving for omega, Initial residual = 0.0072192, Final residual = 9.75692e-06, No Iterations 1
BiCGStab:  Solving for k, Initial residual = 0.0352311, Final residual = 3.60905e-05, No Iterations 1
PIMPLE: iteration 2
BiCGStab:  Solving for Ux, Initial residual = 0.00365724, Final residual = 1.30747e-05, No Iterations 1
BiCGStab:  Solving for Uy, Initial residual = 0.00278008, Final residual = 7.11377e-06, No Iterations 1
BiCGStab:  Solving for Uz, Initial residual = 0.00400903, Final residual = 1.32551e-05, No Iterations 1
DICPCG:  Solving for p, Initial residual = 0.0321579, Final residual = 0.000298535, No Iterations 37
DICPCG:  Solving for p, Initial residual = 0.0196061, Final residual = 0.000134957, No Iterations 44
Moving mesh time step continuity errors : sum local = 2.00585e-06, global = 1.54779e-08, cumulative = 1.21444e-05
BiCGStab:  Solving for omega, Initial residual = 0.00258872, Final residual = 3.20014e-06, No Iterations 1
BiCGStab:  Solving for k, Initial residual = 0.0134247, Final residual = 1.53505e-05, No Iterations 1
PIMPLE: iteration 3
BiCGStab:  Solving for Ux, Initial residual = 0.00105675, Final residual = 4.99043e-06, No Iterations 1
BiCGStab:  Solving for Uy, Initial residual = 0.000713469, Final residual = 2.41156e-06, No Iterations 1
BiCGStab:  Solving for Uz, Initial residual = 0.00134393, Final residual = 4.29852e-06, No Iterations 1
DICPCG:  Solving for p, Initial residual = 0.0254154, Final residual = 0.000218418, No Iterations 42
DICPCG:  Solving for p, Initial residual = 0.0157322, Final residual = 0.000119185, No Iterations 44
Moving mesh time step continuity errors : sum local = 1.76285e-06, global = 1.45146e-08, cumulative = 1.21589e-05
BiCGStab:  Solving for omega, Initial residual = 0.000989964, Final residual = 1.08791e-06, No Iterations 1
BiCGStab:  Solving for k, Initial residual = 0.00549319, Final residual = 7.15526e-06, No Iterations 1
PIMPLE: iteration 4
BiCGStab:  Solving for Ux, Initial residual = 0.000519829, Final residual = 2.32034e-06, No Iterations 1
BiCGStab:  Solving for Uy, Initial residual = 0.000419224, Final residual = 1.12914e-06, No Iterations 1
BiCGStab:  Solving for Uz, Initial residual = 0.000644307, Final residual = 1.48528e-06, No Iterations 1
DICPCG:  Solving for p, Initial residual = 0.0192923, Final residual = 0.00018727, No Iterations 42
DICPCG:  Solving for p, Initial residual = 0.0116001, Final residual = 9.06794e-05, No Iterations 44
Moving mesh time step continuity errors : sum local = 1.33661e-06, global = 7.50798e-09, cumulative = 1.21664e-05
BiCGStab:  Solving for omega, Initial residual = 0.000398857, Final residual = 4.2267e-07, No Iterations 1
BiCGStab:  Solving for k, Initial residual = 0.0023689, Final residual = 3.34361e-06, No Iterations 1
PIMPLE: iteration 5
BiCGStab:  Solving for Ux, Initial residual = 0.000414539, Final residual = 1.6511e-06, No Iterations 1
BiCGStab:  Solving for Uy, Initial residual = 0.000350757, Final residual = 7.83538e-07, No Iterations 1
BiCGStab:  Solving for Uz, Initial residual = 0.000433087, Final residual = 8.53134e-07, No Iterations 1
DICPCG:  Solving for p, Initial residual = 0.0144146, Final residual = 0.000122257, No Iterations 38
DICPCG:  Solving for p, Initial residual = 0.00843012, Final residual = 6.76148e-05, No Iterations 44
Moving mesh time step continuity errors : sum local = 9.94396e-07, global = 2.11499e-09, cumulative = 1.21686e-05
BiCGStab:  Solving for omega, Initial residual = 0.000169524, Final residual = 1.80097e-07, No Iterations 1
BiCGStab:  Solving for k, Initial residual = 0.00106922, Final residual = 1.52766e-06, No Iterations 1
PIMPLE: iteration 6
BiCGStab:  Solving for Ux, Initial residual = 0.00034349, Final residual = 1.38845e-06, No Iterations 1
BiCGStab:  Solving for Uy, Initial residual = 0.000278672, Final residual = 7.20475e-07, No Iterations 1
BiCGStab:  Solving for Uz, Initial residual = 0.000323086, Final residual = 7.26413e-07, No Iterations 1
DICPCG:  Solving for p, Initial residual = 0.0107079, Final residual = 0.000105242, No Iterations 39
DICPCG:  Solving for p, Initial residual = 0.00614792, Final residual = 4.77221e-05, No Iterations 44
Moving mesh time step continuity errors : sum local = 7.00664e-07, global = 3.74842e-10, cumulative = 1.21689e-05
BiCGStab:  Solving for omega, Initial residual = 7.47159e-05, Final residual = 8.01528e-08, No Iterations 1
BiCGStab:  Solving for k, Initial residual = 0.000503139, Final residual = 7.03441e-07, No Iterations 1
PIMPLE: iteration 7
BiCGStab:  Solving for Ux, Initial residual = 0.000278845, Final residual = 1.13931e-06, No Iterations 1
BiCGStab:  Solving for Uy, Initial residual = 0.000212871, Final residual = 6.37923e-07, No Iterations 1
BiCGStab:  Solving for Uz, Initial residual = 0.000236079, Final residual = 5.65204e-07, No Iterations 1
DICPCG:  Solving for p, Initial residual = 0.00802289, Final residual = 7.2505e-05, No Iterations 43
DICPCG:  Solving for p, Initial residual = 0.00453565, Final residual = 3.33029e-05, No Iterations 44
Moving mesh time step continuity errors : sum local = 4.88413e-07, global = -9.64068e-10, cumulative = 1.2168e-05
BiCGStab:  Solving for omega, Initial residual = 3.39351e-05, Final residual = 3.71947e-08, No Iterations 1
BiCGStab:  Solving for k, Initial residual = 0.000245721, Final residual = 3.34741e-07, No Iterations 1
PIMPLE: iteration 8
BiCGStab:  Solving for Ux, Initial residual = 0.00022902, Final residual = 9.45858e-07, No Iterations 1
BiCGStab:  Solving for Uy, Initial residual = 0.00016219, Final residual = 5.44766e-07, No Iterations 1
BiCGStab:  Solving for Uz, Initial residual = 0.000166641, Final residual = 3.97645e-07, No Iterations 1
DICPCG:  Solving for p, Initial residual = 0.00608499, Final residual = 5.28974e-05, No Iterations 43
DICPCG:  Solving for p, Initial residual = 0.00339996, Final residual = 2.37272e-05, No Iterations 44
Moving mesh time step continuity errors : sum local = 3.47702e-07, global = -1.56592e-09, cumulative = 1.21664e-05
BiCGStab:  Solving for omega, Initial residual = 1.58209e-05, Final residual = 1.79288e-08, No Iterations 1
BiCGStab:  Solving for k, Initial residual = 0.000123887, Final residual = 1.64351e-07, No Iterations 1
PIMPLE: iteration 9
BiCGStab:  Solving for Ux, Initial residual = 0.000194701, Final residual = 8.21896e-07, No Iterations 1
BiCGStab:  Solving for Uy, Initial residual = 0.000127336, Final residual = 4.71716e-07, No Iterations 1
BiCGStab:  Solving for Uz, Initial residual = 0.000115351, Final residual = 2.70056e-07, No Iterations 1
DICPCG:  Solving for p, Initial residual = 0.00466393, Final residual = 3.65152e-05, No Iterations 43
DICPCG:  Solving for p, Initial residual = 0.00260995, Final residual = 1.69356e-05, No Iterations 44
Moving mesh time step continuity errors : sum local = 2.48037e-07, global = -1.62276e-09, cumulative = 1.21648e-05
BiCGStab:  Solving for omega, Initial residual = 7.58315e-06, Final residual = 8.99761e-09, No Iterations 1
BiCGStab:  Solving for k, Initial residual = 6.41525e-05, Final residual = 8.29309e-08, No Iterations 1
PIMPLE: iteration 10
BiCGStab:  Solving for Ux, Initial residual = 0.000171919, Final residual = 7.44374e-07, No Iterations 1
BiCGStab:  Solving for Uy, Initial residual = 0.000104538, Final residual = 4.21352e-07, No Iterations 1
BiCGStab:  Solving for Uz, Initial residual = 7.92359e-05, Final residual = 1.82265e-07, No Iterations 1
DICPCG:  Solving for p, Initial residual = 0.00360573, Final residual = 3.12921e-05, No Iterations 42
DICPCG:  Solving for p, Initial residual = 0.00204251, Final residual = 1.99978e-05, No Iterations 43
Moving mesh time step continuity errors : sum local = 2.92773e-07, global = -2.29836e-09, cumulative = 1.21625e-05
BiCGStab:  Solving for omega, Initial residual = 3.72471e-06, Final residual = 4.77954e-09, No Iterations 1
BiCGStab:  Solving for k, Initial residual = 3.47202e-05, Final residual = 4.41917e-08, No Iterations 1
ExecutionTime = 3.21 s  ClockTime = 3 s

Courant Number mean: 0.0531732 max: 0.353357 velocity magnitude: 1.51061
Time = 0.01225

volume continuity errors : volume = 0.00198438, max error = 2.99112e-12, sum local = 4.8842e-16, global = 1.53024e-18
Courant Number mean: 0.063271 max: 0.353357 velocity magnitude: 1.52556
PIMPLE: iteration 1
BiCGStab:  Solving for Ux, Initial residual = 0.0166629, Final residual = 4.77707e-05, No Iterations 1
BiCGStab:  Solving for Uy, Initial residual = 0.0129748, Final residual = 3.25872e-05, No Iterations 1
BiCGStab:  Solving for Uz, Initial residual = 0.0177775, Final residual = 4.39976e-05, No Iterations 1
DICPCG:  Solving for p, Initial residual = 0.0291704, Final residual = 0.000286137, No Iterations 20
DICPCG:  Solving for p, Initial residual = 0.0131193, Final residual = 0.000114488, No Iterations 44
Moving mesh time step continuity errors : sum local = 1.62568e-06, global = 6.35085e-09, cumulative = 1.21688e-05
BiCGStab:  Solving for omega, Initial residual = 0.00627158, Final residual = 7.15628e-06, No Iterations 1
BiCGStab:  Solving for k, Initial residual = 0.0303452, Final residual = 2.93108e-05, No Iterations 1
PIMPLE: iteration 2
BiCGStab:  Solving for Ux, Initial residual = 0.00305296, Final residual = 1.08261e-05, No Iterations 1
BiCGStab:  Solving for Uy, Initial residual = 0.00218277, Final residual = 5.68932e-06, No Iterations 1
BiCGStab:  Solving for Uz, Initial residual = 0.00338989, Final residual = 1.07014e-05, No Iterations 1
DICPCG:  Solving for p, Initial residual = 0.0284481, Final residual = 0.000247597, No Iterations 38
DICPCG:  Solving for p, Initial residual = 0.0144891, Final residual = 0.000110111, No Iterations 44
Moving mesh time step continuity errors : sum local = 1.55742e-06, global = 6.10666e-09, cumulative = 1.21749e-05
BiCGStab:  Solving for omega, Initial residual = 0.00224886, Final residual = 2.20524e-06, No Iterations 1
BiCGStab:  Solving for k, Initial residual = 0.0117225, Final residual = 1.23511e-05, No Iterations 1
PIMPLE: iteration 3
BiCGStab:  Solving for Ux, Initial residual = 0.000886717, Final residual = 3.87057e-06, No Iterations 1
BiCGStab:  Solving for Uy, Initial residual = 0.000586628, Final residual = 2.28753e-06, No Iterations 1
BiCGStab:  Solving for Uz, Initial residual = 0.00102151, Final residual = 3.40954e-06, No Iterations 1
DICPCG:  Solving for p, Initial residual = 0.022047, Final residual = 0.000171294, No Iterations 42
DICPCG:  Solving for p, Initial residual = 0.011915, Final residual = 9.98934e-05, No Iterations 44
Moving mesh time step continuity errors : sum local = 1.40895e-06, global = 1.14807e-08, cumulative = 1.21864e-05
BiCGStab:  Solving for omega, Initial residual = 0.000857287, Final residual = 8.01459e-07, No Iterations 1
BiCGStab:  Solving for k, Initial residual = 0.00480436, Final residual = 5.54668e-06, No Iterations 1
PIMPLE: iteration 4
BiCGStab:  Solving for Ux, Initial residual = 0.000424918, Final residual = 1.96165e-06, No Iterations 1
BiCGStab:  Solving for Uy, Initial residual = 0.000330639, Final residual = 1.14638e-06, No Iterations 1
BiCGStab:  Solving for Uz, Initial residual = 0.000419407, Final residual = 9.92111e-07, No Iterations 1
DICPCG:  Solving for p, Initial residual = 0.0164697, Final residual = 0.000158228, No Iterations 43
DICPCG:  Solving for p, Initial residual = 0.00904258, Final residual = 7.99092e-05, No Iterations 44
Moving mesh time step continuity errors : sum local = 1.12514e-06, global = 5.95617e-09, cumulative = 1.21924e-05
BiCGStab:  Solving for omega, Initial residual = 0.000342713, Final residual = 3.31272e-07, No Iterations 1
BiCGStab:  Solving for k, Initial residual = 0.00205756, Final residual = 2.49727e-06, No Iterations 1
PIMPLE: iteration 5
BiCGStab:  Solving for Ux, Initial residual = 0.000330907, Final residual = 1.33837e-06, No Iterations 1
BiCGStab:  Solving for Uy, Initial residual = 0.000269792, Final residual = 8.04352e-07, No Iterations 1
BiCGStab:  Solving for Uz, Initial residual = 0.000275725, Final residual = 5.10569e-07, No Iterations 1
DICPCG:  Solving for p, Initial residual = 0.0122463, Final residual = 0.000119027, No Iterations 43
DICPCG:  Solving for p, Initial residual = 0.0067221, Final residual = 5.9249e-05, No Iterations 44
Moving mesh time step continuity errors : sum local = 8.33085e-07, global = 1.70538e-09, cumulative = 1.21941e-05
BiCGStab:  Solving for omega, Initial residual = 0.000143738, Final residual = 1.38795e-07, No Iterations 1
BiCGStab:  Solving for k, Initial residual = 0.000916156, Final residual = 1.11573e-06, No Iterations 1
PIMPLE: iteration 6
BiCGStab:  Solving for Ux, Initial residual = 0.000278448, Final residual = 1.09184e-06, No Iterations 1
BiCGStab:  Solving for Uy, Initial residual = 0.000224094, Final residual = 7.21367e-07, No Iterations 1
BiCGStab:  Solving for Uz, Initial residual = 0.000211871, Final residual = 4.60284e-07, No Iterations 1
DICPCG:  Solving for p, Initial residual = 0.0091806, Final residual = 8.68774e-05, No Iterations 38
DICPCG:  Solving for p, Initial residual = 0.00507235, Final residual = 4.40187e-05, No Iterations 44
Moving mesh time step continuity errors : sum local = 6.18321e-07, global = -8.43492e-10, cumulative = 1.21932e-05
BiCGStab:  Solving for omega, Initial residual = 6.20061e-05, Final residual = 5.96868e-08, No Iterations 1
BiCGStab:  Solving for k, Initial residual = 0.000422716, Final residual = 5.08918e-07, No Iterations 1
PIMPLE: iteration 7
BiCGStab:  Solving for Ux, Initial residual = 0.000234153, Final residual = 9.67643e-07, No Iterations 1
BiCGStab:  Solving for Uy, Initial residual = 0.000184324, Final residual = 6.62178e-07, No Iterations 1
BiCGStab:  Solving for Uz, Initial residual = 0.000158271, Final residual = 3.63547e-07, No Iterations 1
DICPCG:  Solving for p, Initial residual = 0.00697846, Final residual = 6.92657e-05, No Iterations 38
DICPCG:  Solving for p, Initial residual = 0.00388933, Final residual = 2.98945e-05, No Iterations 44
Moving mesh time step continuity errors : sum local = 4.19575e-07, global = -5.41482e-10, cumulative = 1.21927e-05
BiCGStab:  Solving for omega, Initial residual = 2.7424e-05, Final residual = 2.66417e-08, No Iterations 1
BiCGStab:  Solving for k, Initial residual = 0.000201384, Final residual = 2.39365e-07, No Iterations 1
PIMPLE: iteration 8
BiCGStab:  Solving for Ux, Initial residual = 0.00020129, Final residual = 8.75086e-07, No Iterations 1
BiCGStab:  Solving for Uy, Initial residual = 0.000153926, Final residual = 5.9852e-07, No Iterations 1
BiCGStab:  Solving for Uz, Initial residual = 0.000114007, Final residual = 2.61803e-07, No Iterations 1
DICPCG:  Solving for p, Initial residual = 0.0053578, Final residual = 4.96189e-05, No Iterations 42
DICPCG:  Solving for p, Initial residual = 0.00304103, Final residual = 2.3207e-05, No Iterations 44
Moving mesh time step continuity errors : sum local = 3.25505e-07, global = -6.33735e-10, cumulative = 1.21921e-05
BiCGStab:  Solving for omega, Initial residual = 1.24255e-05, Final residual = 1.24007e-08, No Iterations 1
BiCGStab:  Solving for k, Initial residual = 9.86962e-05, Final residual = 1.15206e-07, No Iterations 1
PIMPLE: iteration 9
BiCGStab:  Solving for Ux, Initial residual = 0.00017833, Final residual = 8.10348e-07, No Iterations 1
BiCGStab:  Solving for Uy, Initial residual = 0.000132732, Final residual = 5.4888e-07, No Iterations 1
BiCGStab:  Solving for Uz, Initial residual = 8.08913e-05, Final residual = 1.82815e-07, No Iterations 1
DICPCG:  Solving for p, Initial residual = 0.00415442, Final residual = 3.76207e-05, No Iterations 42
DICPCG:  Solving for p, Initial residual = 0.00242564, Final residual = 1.74415e-05, No Iterations 44
Moving mesh time step continuity errors : sum local = 2.44523e-07, global = -4.49277e-10, cumulative = 1.21916e-05
BiCGStab:  Solving for omega, Initial residual = 5.80264e-06, Final residual = 6.06627e-09, No Iterations 1
BiCGStab:  Solving for k, Initial residual = 4.9598e-05, Final residual = 5.67634e-08, No Iterations 1
PIMPLE: iteration 10
BiCGStab:  Solving for Ux, Initial residual = 0.000163041, Final residual = 7.71071e-07, No Iterations 1
BiCGStab:  Solving for Uy, Initial residual = 0.000118714, Final residual = 5.14494e-07, No Iterations 1
BiCGStab:  Solving for Uz, Initial residual = 5.73398e-05, Final residual = 1.27327e-07, No Iterations 1
DICPCG:  Solving for p, Initial residual = 0.00326578, Final residual = 2.70545e-05, No Iterations 42
DICPCG:  Solving for p, Initial residual = 0.00197054, Final residual = 1.80573e-05, No Iterations 43
Moving mesh time step continuity errors : sum local = 2.53067e-07, global = 1.04369e-09, cumulative = 1.21927e-05
BiCGStab:  Solving for omega, Initial residual = 2.80859e-06, Final residual = 3.27141e-09, No Iterations 1
BiCGStab:  Solving for k, Initial residual = 2.60368e-05, Final residual = 2.97919e-08, No Iterations 1
ExecutionTime = 3.75 s  ClockTime = 3 s

Courant Number mean: 0.0531263 max: 0.353914 velocity magnitude: 1.51116
Time = 0.014

volume continuity errors : volume = 0.00198438, max error = 2.77046e-12, sum local = 4.64679e-16, global = -2.44237e-18
Courant Number mean: 0.0632148 max: 0.353914 velocity magnitude: 1.52612
PIMPLE: iteration 1
BiCGStab:  Solving for Ux, Initial residual = 0.0147536, Final residual = 4.23248e-05, No Iterations 1
BiCGStab:  Solving for Uy, Initial residual = 0.0108465, Final residual = 2.72202e-05, No Iterations 1
BiCGStab:  Solving for Uz, Initial residual = 0.0161638, Final residual = 3.50488e-05, No Iterations 1
DICPCG:  Solving for p, Initial residual = 0.0248319, Final residual = 0.000212704, No Iterations 34
DICPCG:  Solving for p, Initial residual = 0.0103165, Final residual = 6.45897e-05, No Iterations 44
Moving mesh time step continuity errors : sum local = 8.69503e-07, global = -2.94259e-09, cumulative = 1.21897e-05
BiCGStab:  Solving for omega, Initial residual = 0.00549037, Final residual = 5.14175e-06, No Iterations 1
BiCGStab:  Solving for k, Initial residual = 0.0267429, Final residual = 2.43214e-05, No Iterations 1
PIMPLE: iteration 2
BiCGStab:  Solving for Ux, Initial residual = 0.00258317, Final residual = 8.27143e-06, No Iterations 1
BiCGStab:  Solving for Uy, Initial residual = 0.00180794, Final residual = 4.76289e-06, No Iterations 1
BiCGStab:  Solving for Uz, Initial residual = 0.00285342, Final residual = 8.12113e-06, No Iterations 1
DICPCG:  Solving for p, Initial residual = 0.023967, Final residual = 0.000209551, No Iterations 42
DICPCG:  Solving for p, Initial residual = 0.0113482, Final residual = 8.79182e-05, No Iterations 44
Moving mesh time step continuity errors : sum local = 1.18246e-06, global = 4.36795e-09, cumulative = 1.21941e-05
BiCGStab:  Solving for omega, Initial residual = 0.00196403, Final residual = 1.63786e-06, No Iterations 1
BiCGStab:  Solving for k, Initial residual = 0.010433, Final residual = 1.01939e-05, No Iterations 1
PIMPLE: iteration 3
BiCGStab:  Solving for Ux, Initial residual = 0.000744457, Final residual = 2.66852e-06, No Iterations 1
BiCGStab:  Solving for Uy, Initial residual = 0.000513358, Final residual = 2.09691e-06, No Iterations 1
BiCGStab:  Solving for Uz, Initial residual = 0.000785568, Final residual = 2.38079e-06, No Iterations 1
DICPCG:  Solving for p, Initial residual = 0.0185362, Final residual = 0.000141602, No Iterations 37
DICPCG:  Solving for p, Initial residual = 0.00951683, Final residual = 7.73119e-05, No Iterations 44
Moving mesh time step continuity errors : sum local = 1.03884e-06, global = 6.19853e-09, cumulative = 1.22003e-05
BiCGStab:  Solving for omega, Initial residual = 0.000747374, Final residual = 6.60361e-07, No Iterations 1
BiCGStab:  Solving for k, Initial residual = 0.00427939, Final residual = 4.4568e-06, No Iterations 1
PIMPLE: iteration 4
BiCGStab:  Solving for Ux, Initial residual = 0.00037403, Final residual = 1.22127e-06, No Iterations 1
BiCGStab:  Solving for Uy, Initial residual = 0.000288385, Final residual = 1.0926e-06, No Iterations 1
BiCGStab:  Solving for Uz, Initial residual = 0.000312138, Final residual = 6.56035e-07, No Iterations 1
DICPCG:  Solving for p, Initial residual = 0.0138853, Final residual = 0.000121989, No Iterations 37
DICPCG:  Solving for p, Initial residual = 0.0074311, Final residual = 5.96426e-05, No Iterations 44
Moving mesh time step continuity errors : sum local = 8.0066e-07, global = 5.47816e-09, cumulative = 1.22058e-05
BiCGStab:  Solving for omega, Initial residual = 0.000298347, Final residual = 2.68023e-07, No Iterations 1
BiCGStab:  Solving for k, Initial residual = 0.00182394, Final residual = 1.95345e-06, No Iterations 1
PIMPLE: iteration 5
BiCGStab:  Solving for Ux, Initial residual = 0.000309671, Final residual = 8.6213e-07, No Iterations 1
BiCGStab:  Solving for Uy, Initial residual = 0.000239138, Final residual = 7.82686e-07, No Iterations 1
BiCGStab:  Solving for Uz, Initial residual = 0.000216304, Final residual = 4.15171e-07, No Iterations 1
DICPCG:  Solving for p, Initial residual = 0.0103977, Final residual = 9.31641e-05, No Iterations 42
DICPCG:  Solving for p, Initial residual = 0.00566226, Final residual = 4.2371e-05, No Iterations 44
Moving mesh time step continuity errors : sum local = 5.68293e-07, global = 4.08469e-09, cumulative = 1.22098e-05
BiCGStab:  Solving for omega, Initial residual = 0.000123281, Final residual = 1.08538e-07, No Iterations 1
BiCGStab:  Solving for k, Initial residual = 0.000803817, Final residual = 8.64992e-07, No Iterations 1
PIMPLE: iteration 6
BiCGStab:  Solving for Ux, Initial residual = 0.00027372, Final residual = 7.6073e-07, No Iterations 1
BiCGStab:  Solving for Uy, Initial residual = 0.000210478, Final residual = 7.2733e-07, No Iterations 1
BiCGStab:  Solving for Uz, Initial residual = 0.000167982, Final residual = 3.54788e-07, No Iterations 1
DICPCG:  Solving for p, Initial residual = 0.00784945, Final residual = 6.93677e-05, No Iterations 43
DICPCG:  Solving for p, Initial residual = 0.00434194, Final residual = 3.18149e-05, No Iterations 44
Moving mesh time step continuity errors : sum local = 4.26355e-07, global = 2.60448e-09, cumulative = 1.22125e-05
BiCGStab:  Solving for omega, Initial residual = 5.21053e-05, Final residual = 4.52412e-08, No Iterations 1
BiCGStab:  Solving for k, Initial residual = 0.000365291, Final residual = 3.91892e-07, No Iterations 1
PIMPLE: iteration 7
BiCGStab:  Solving for Ux, Initial residual = 0.000241912, Final residual = 7.26021e-07, No Iterations 1
BiCGStab:  Solving for Uy, Initial residual = 0.000184763, Final residual = 7.01091e-07, No Iterations 1
BiCGStab:  Solving for Uz, Initial residual = 0.000123877, Final residual = 2.64878e-07, No Iterations 1
DICPCG:  Solving for p, Initial residual = 0.00597587, Final residual = 5.13218e-05, No Iterations 43
DICPCG:  Solving for p, Initial residual = 0.00338436, Final residual = 3.30647e-05, No Iterations 43
Moving mesh time step continuity errors : sum local = 4.42784e-07, global = 2.3841e-09, cumulative = 1.22148e-05
BiCGStab:  Solving for omega, Initial residual = 2.25599e-05, Final residual = 1.9635e-08, No Iterations 1
BiCGStab:  Solving for k, Initial residual = 0.000170689, Final residual = 1.81947e-07, No Iterations 1
PIMPLE: iteration 8
BiCGStab:  Solving for Ux, Initial residual = 0.000218026, Final residual = 7.01038e-07, No Iterations 1
BiCGStab:  Solving for Uy, Initial residual = 0.0001648, Final residual = 6.70191e-07, No Iterations 1
BiCGStab:  Solving for Uz, Initial residual = 8.9335e-05, Final residual = 1.8849e-07, No Iterations 1
DICPCG:  Solving for p, Initial residual = 0.00461847, Final residual = 4.59378e-05, No Iterations 42
DICPCG:  Solving for p, Initial residual = 0.00268088, Final residual = 2.25885e-05, No Iterations 43
Moving mesh time step continuity errors : sum local = 3.0231e-07, global = 2.31917e-09, cumulative = 1.22172e-05
BiCGStab:  Solving for omega, Initial residual = 9.99566e-06, Final residual = 8.86401e-09, No Iterations 1
BiCGStab:  Solving for k, Initial residual = 8.18101e-05, Final residual = 8.62772e-08, No Iterations 1
PIMPLE: iteration 9
BiCGStab:  Solving for Ux, Initial residual = 0.000201639, Final residual = 6.8264e-07, No Iterations 1
BiCGStab:  Solving for Uy, Initial residual = 0.000150728, Final residual = 6.45804e-07, No Iterations 1
BiCGStab:  Solving for Uz, Initial residual = 6.38763e-05, Final residual = 1.31444e-07, No Iterations 1
DICPCG:  Solving for p, Initial residual = 0.00362502, Final residual = 3.25888e-05, No Iterations 42
DICPCG:  Solving for p, Initial residual = 0.00214449, Final residual = 1.91677e-05, No Iterations 39
Moving mesh time step continuity errors : sum local = 2.56405e-07, global = 1.15174e-08, cumulative = 1.22287e-05
BiCGStab:  Solving for omega, Initial residual = 4.5781e-06, Final residual = 4.2712e-09, No Iterations 1
BiCGStab:  Solving for k, Initial residual = 4.01345e-05, Final residual = 4.17482e-08, No Iterations 1
PIMPLE: iteration 10
BiCGStab:  Solving for Ux, Initial residual = 0.000190801, Final residual = 6.70637e-07, No Iterations 1
BiCGStab:  Solving for Uy, Initial residual = 0.000141216, Final residual = 6.28821e-07, No Iterations 1
BiCGStab:  Solving for Uz, Initial residual = 4.59019e-05, Final residual = 9.17913e-08, No Iterations 1
DICPCG:  Solving for p, Initial residual = 0.00288107, Final residual = 2.32078e-05, No Iterations 42
DICPCG:  Solving for p, Initial residual = 0.00174112, Final residual = 1.65053e-05, No Iterations 37
Moving mesh time step continuity errors : sum local = 2.20705e-07, global = -3.79515e-09, cumulative = 1.22249e-05
BiCGStab:  Solving for omega, Initial residual = 2.18961e-06, Final residual = 2.31471e-09, No Iterations 1
BiCGStab:  Solving for k, Initial residual = 2.05521e-05, Final residual = 2.14883e-08, No Iterations 1
ExecutionTime = 4.3 s  ClockTime = 4 s

Courant Number mean: 0.0530636 max: 0.35426 velocity magnitude: 1.51433
Time = 0.01575

volume continuity errors : volume = 0.00198438, max error = 3.27826e-12, sum local = 4.3926e-16, global = -4.24903e-18
Courant Number mean: 0.0631419 max: 0.35426 velocity magnitude: 1.52928
PIMPLE: iteration 1
BiCGStab:  Solving for Ux, Initial residual = 0.0133108, Final residual = 3.65849e-05, No Iterations 1
BiCGStab:  Solving for Uy, Initial residual = 0.0093953, Final residual = 2.27242e-05, No Iterations 1
BiCGStab:  Solving for Uz, Initial residual = 0.0149425, Final residual = 2.79835e-05, No Iterations 1
DICPCG:  Solving for p, Initial residual = 0.0230991, Final residual = 0.000220921, No Iterations 34
DICPCG:  Solving for p, Initial residual = 0.00786096, Final residual = 4.76397e-05, No Iterations 44
Moving mesh time step continuity errors : sum local = 6.17328e-07, global = -1.88374e-09, cumulative = 1.2223e-05
BiCGStab:  Solving for omega, Initial residual = 0.00482554, Final residual = 3.74765e-06, No Iterations 1
BiCGStab:  Solving for k, Initial residual = 0.0239637, Final residual = 2.05227e-05, No Iterations 1
PIMPLE: iteration 2
BiCGStab:  Solving for Ux, Initial residual = 0.00231479, Final residual = 7.10154e-06, No Iterations 1
BiCGStab:  Solving for Uy, Initial residual = 0.00158862, Final residual = 4.26196e-06, No Iterations 1
BiCGStab:  Solving for Uz, Initial residual = 0.00247679, Final residual = 6.59927e-06, No Iterations 1
DICPCG:  Solving for p, Initial residual = 0.0216992, Final residual = 0.000166566, No Iterations 36
DICPCG:  Solving for p, Initial residual = 0.00824597, Final residual = 5.5125e-05, No Iterations 44
Moving mesh time step continuity errors : sum local = 7.15519e-07, global = 8.92298e-10, cumulative = 1.22239e-05
BiCGStab:  Solving for omega, Initial residual = 0.00172459, Final residual = 1.34171e-06, No Iterations 1
BiCGStab:  Solving for k, Initial residual = 0.00940037, Final residual = 8.43232e-06, No Iterations 1
PIMPLE: iteration 3
BiCGStab:  Solving for Ux, Initial residual = 0.000726837, Final residual = 2.43315e-06, No Iterations 1
BiCGStab:  Solving for Uy, Initial residual = 0.000496174, Final residual = 1.90366e-06, No Iterations 1
BiCGStab:  Solving for Uz, Initial residual = 0.00064589, Final residual = 1.83858e-06, No Iterations 1
DICPCG:  Solving for p, Initial residual = 0.01666, Final residual = 0.000139536, No Iterations 41
DICPCG:  Solving for p, Initial residual = 0.00703731, Final residual = 6.98488e-05, No Iterations 43
Moving mesh time step continuity errors : sum local = 9.06425e-07, global = 2.12118e-11, cumulative = 1.22239e-05
BiCGStab:  Solving for omega, Initial residual = 0.000657421, Final residual = 5.40792e-07, No Iterations 1
BiCGStab:  Solving for k, Initial residual = 0.00385192, Final residual = 3.5831e-06, No Iterations 1
PIMPLE: iteration 4
BiCGStab:  Solving for Ux, Initial residual = 0.000410463, Final residual = 1.37003e-06, No Iterations 1
BiCGStab:  Solving for Uy, Initial residual = 0.000297305, Final residual = 1.10169e-06, No Iterations 1
BiCGStab:  Solving for Uz, Initial residual = 0.000226118, Final residual = 4.83274e-07, No Iterations 1
DICPCG:  Solving for p, Initial residual = 0.0122495, Final residual = 9.22716e-05, No Iterations 41
DICPCG:  Solving for p, Initial residual = 0.00553638, Final residual = 4.92186e-05, No Iterations 43
Moving mesh time step continuity errors : sum local = 6.38379e-07, global = -1.71278e-09, cumulative = 1.22222e-05
BiCGStab:  Solving for omega, Initial residual = 0.000261003, Final residual = 2.11564e-07, No Iterations 1
BiCGStab:  Solving for k, Initial residual = 0.00163208, Final residual = 1.54081e-06, No Iterations 1
PIMPLE: iteration 5
BiCGStab:  Solving for Ux, Initial residual = 0.00035493, Final residual = 1.08984e-06, No Iterations 1
BiCGStab:  Solving for Uy, Initial residual = 0.000251515, Final residual = 8.42964e-07, No Iterations 1
BiCGStab:  Solving for Uz, Initial residual = 0.000142384, Final residual = 2.45044e-07, No Iterations 1
DICPCG:  Solving for p, Initial residual = 0.00895696, Final residual = 8.24972e-05, No Iterations 36
DICPCG:  Solving for p, Initial residual = 0.00423466, Final residual = 3.51315e-05, No Iterations 43
Moving mesh time step continuity errors : sum local = 4.5545e-07, global = -3.141e-09, cumulative = 1.22191e-05
BiCGStab:  Solving for omega, Initial residual = 0.00010635, Final residual = 8.40831e-08, No Iterations 1
BiCGStab:  Solving for k, Initial residual = 0.000712045, Final residual = 6.76304e-07, No Iterations 1
PIMPLE: iteration 6
BiCGStab:  Solving for Ux, Initial residual = 0.00032842, Final residual = 1.02553e-06, No Iterations 1
BiCGStab:  Solving for Uy, Initial residual = 0.00022932, Final residual = 7.89771e-07, No Iterations 1
BiCGStab:  Solving for Uz, Initial residual = 0.000108806, Final residual = 2.12151e-07, No Iterations 1
DICPCG:  Solving for p, Initial residual = 0.00655037, Final residual = 6.21824e-05, No Iterations 39
DICPCG:  Solving for p, Initial residual = 0.00317048, Final residual = 3.16834e-05, No Iterations 42
Moving mesh time step continuity errors : sum local = 4.10612e-07, global = -4.66815e-09, cumulative = 1.22144e-05
BiCGStab:  Solving for omega, Initial residual = 4.43169e-05, Final residual = 3.46291e-08, No Iterations 1
BiCGStab:  Solving for k, Initial residual = 0.000319114, Final residual = 3.04129e-07, No Iterations 1
PIMPLE: iteration 7
BiCGStab:  Solving for Ux, Initial residual = 0.000305578, Final residual = 1.00793e-06, No Iterations 1
BiCGStab:  Solving for Uy, Initial residual = 0.000211234, Final residual = 7.76041e-07, No Iterations 1
BiCGStab:  Solving for Uz, Initial residual = 7.95228e-05, Final residual = 1.60855e-07, No Iterations 1
[...]
BiCGStab:  Solving for omega, Initial residual = 9.54663e-07, Final residual = 9.54663e-07, No Iterations 0
BiCGStab:  Solving for k, Initial residual = 4.8552e-07, Final residual = 4.8552e-07, No Iterations 0
PIMPLE: iteration 9
BiCGStab:  Solving for Ux, Initial residual = 0.000126087, Final residual = 4.25724e-08, No Iterations 1
BiCGStab:  Solving for Uy, Initial residual = 4.26802e-05, Final residual = 1.37024e-08, No Iterations 1
BiCGStab:  Solving for Uz, Initial residual = 4.62449e-06, Final residual = 2.38616e-09, No Iterations 1
DICPCG:  Solving for p, Initial residual = 0.00104241, Final residual = 9.38918e-06, No Iterations 33
DICPCG:  Solving for p, Initial residual = 0.000419576, Final residual = 3.44256e-06, No Iterations 9
Moving mesh time step continuity errors : sum local = 6.82795e-08, global = 2.26103e-09, cumulative = -9.14026e-07
BiCGStab:  Solving for omega, Initial residual = 9.99716e-07, Final residual = 9.99716e-07, No Iterations 0
BiCGStab:  Solving for k, Initial residual = 4.91984e-07, Final residual = 4.91984e-07, No Iterations 0
PIMPLE: iteration 10
BiCGStab:  Solving for Ux, Initial residual = 0.000125534, Final residual = 4.24694e-08, No Iterations 1
BiCGStab:  Solving for Uy, Initial residual = 4.21601e-05, Final residual = 1.3622e-08, No Iterations 1
BiCGStab:  Solving for Uz, Initial residual = 3.35759e-06, Final residual = 1.76945e-09, No Iterations 1
DICPCG:  Solving for p, Initial residual = 0.000786378, Final residual = 7.39807e-06, No Iterations 10
DICPCG:  Solving for p, Initial residual = 0.000328035, Final residual = 3.06936e-06, No Iterations 34
Moving mesh time step continuity errors : sum local = 6.08687e-08, global = -4.96931e-09, cumulative = -9.18995e-07
BiCGStab:  Solving for omega, Initial residual = 1.04685e-06, Final residual = 1.90746e-10, No Iterations 1
BiCGStab:  Solving for k, Initial residual = 5.02477e-07, Final residual = 5.02477e-07, No Iterations 0
ExecutionTime = 197.91 s  ClockTime = 198 s

Courant Number mean: 0.0592985 max: 0.399445 velocity magnitude: 1.62879
Time = 0.6265

volume continuity errors : volume = 0.00198438, max error = 2.74523e-12, sum local = 3.8424e-16, global = 1.36257e-18
Courant Number mean: 0.0697279 max: 0.399445 velocity magnitude: 1.64243
PIMPLE: iteration 1
BiCGStab:  Solving for Ux, Initial residual = 0.00521792, Final residual = 1.69703e-06, No Iterations 1
BiCGStab:  Solving for Uy, Initial residual = 0.00295098, Final residual = 8.67489e-07, No Iterations 1
BiCGStab:  Solving for Uz, Initial residual = 0.00895784, Final residual = 2.43794e-06, No Iterations 1
DICPCG:  Solving for p, Initial residual = 0.0115196, Final residual = 9.65741e-05, No Iterations 41
DICPCG:  Solving for p, Initial residual = 0.00276073, Final residual = 2.45202e-05, No Iterations 19
Moving mesh time step continuity errors : sum local = 4.87933e-07, global = -1.47069e-08, cumulative = -9.33702e-07
BiCGStab:  Solving for omega, Initial residual = 0.0010565, Final residual = 2.12974e-07, No Iterations 1
BiCGStab:  Solving for k, Initial residual = 0.000393147, Final residual = 5.99072e-08, No Iterations 1
PIMPLE: iteration 2
BiCGStab:  Solving for Ux, Initial residual = 0.000509477, Final residual = 2.5899e-07, No Iterations 1
BiCGStab:  Solving for Uy, Initial residual = 0.000290808, Final residual = 9.89398e-08, No Iterations 1
BiCGStab:  Solving for Uz, Initial residual = 0.000868412, Final residual = 3.82762e-07, No Iterations 1
DICPCG:  Solving for p, Initial residual = 0.00955429, Final residual = 9.37192e-05, No Iterations 41
DICPCG:  Solving for p, Initial residual = 0.0024776, Final residual = 2.27545e-05, No Iterations 18
Moving mesh time step continuity errors : sum local = 4.53441e-07, global = -2.49544e-08, cumulative = -9.58657e-07
BiCGStab:  Solving for omega, Initial residual = 0.000384769, Final residual = 7.66255e-08, No Iterations 1
BiCGStab:  Solving for k, Initial residual = 0.000149452, Final residual = 2.46444e-08, No Iterations 1
PIMPLE: iteration 3
BiCGStab:  Solving for Ux, Initial residual = 0.000114516, Final residual = 4.22008e-08, No Iterations 1
BiCGStab:  Solving for Uy, Initial residual = 5.82954e-05, Final residual = 1.64118e-08, No Iterations 1
BiCGStab:  Solving for Uz, Initial residual = 0.000128659, Final residual = 5.38653e-08, No Iterations 1
DICPCG:  Solving for p, Initial residual = 0.00732501, Final residual = 7.27072e-05, No Iterations 35
DICPCG:  Solving for p, Initial residual = 0.00198215, Final residual = 1.89974e-05, No Iterations 17
Moving mesh time step continuity errors : sum local = 3.78494e-07, global = -9.53696e-08, cumulative = -1.05403e-06
BiCGStab:  Solving for omega, Initial residual = 0.000140583, Final residual = 2.76928e-08, No Iterations 1
BiCGStab:  Solving for k, Initial residual = 5.6986e-05, Final residual = 1.00739e-08, No Iterations 1
PIMPLE: iteration 4
BiCGStab:  Solving for Ux, Initial residual = 7.98831e-05, Final residual = 2.50109e-08, No Iterations 1
BiCGStab:  Solving for Uy, Initial residual = 3.43319e-05, Final residual = 1.11815e-08, No Iterations 1
BiCGStab:  Solving for Uz, Initial residual = 3.7879e-05, Final residual = 1.63356e-08, No Iterations 1
DICPCG:  Solving for p, Initial residual = 0.00529454, Final residual = 4.55405e-05, No Iterations 34
DICPCG:  Solving for p, Initial residual = 0.00152232, Final residual = 1.37948e-05, No Iterations 41
Moving mesh time step continuity errors : sum local = 2.74846e-07, global = -4.277e-09, cumulative = -1.0583e-06
BiCGStab:  Solving for omega, Initial residual = 5.12996e-05, Final residual = 1.01571e-08, No Iterations 1
BiCGStab:  Solving for k, Initial residual = 2.19015e-05, Final residual = 4.05414e-09, No Iterations 1
PIMPLE: iteration 5
BiCGStab:  Solving for Ux, Initial residual = 7.49057e-05, Final residual = 2.48066e-08, No Iterations 1
BiCGStab:  Solving for Uy, Initial residual = 3.03421e-05, Final residual = 1.00747e-08, No Iterations 1
BiCGStab:  Solving for Uz, Initial residual = 2.22263e-05, Final residual = 1.11823e-08, No Iterations 1
DICPCG:  Solving for p, Initial residual = 0.00383055, Final residual = 3.26252e-05, No Iterations 33
DICPCG:  Solving for p, Initial residual = 0.00118651, Final residual = 1.06108e-05, No Iterations 41
Moving mesh time step continuity errors : sum local = 2.11427e-07, global = -2.65479e-09, cumulative = -1.06096e-06
BiCGStab:  Solving for omega, Initial residual = 1.87282e-05, Final residual = 3.72081e-09, No Iterations 1
BiCGStab:  Solving for k, Initial residual = 8.44845e-06, Final residual = 1.61342e-09, No Iterations 1
PIMPLE: iteration 6
BiCGStab:  Solving for Ux, Initial residual = 7.19923e-05, Final residual = 2.38932e-08, No Iterations 1
BiCGStab:  Solving for Uy, Initial residual = 2.78409e-05, Final residual = 8.96355e-09, No Iterations 1
BiCGStab:  Solving for Uz, Initial residual = 1.47235e-05, Final residual = 7.59625e-09, No Iterations 1
DICPCG:  Solving for p, Initial residual = 0.00278261, Final residual = 2.25388e-05, No Iterations 33
DICPCG:  Solving for p, Initial residual = 0.00092519, Final residual = 7.77974e-06, No Iterations 41
Moving mesh time step continuity errors : sum local = 1.55027e-07, global = -1.62088e-09, cumulative = -1.06258e-06
BiCGStab:  Solving for omega, Initial residual = 6.83958e-06, Final residual = 1.35925e-09, No Iterations 1
BiCGStab:  Solving for k, Initial residual = 3.25615e-06, Final residual = 6.36332e-10, No Iterations 1
PIMPLE: iteration 7
BiCGStab:  Solving for Ux, Initial residual = 7.00142e-05, Final residual = 2.29931e-08, No Iterations 1
BiCGStab:  Solving for Uy, Initial residual = 2.61498e-05, Final residual = 8.19976e-09, No Iterations 1
BiCGStab:  Solving for Uz, Initial residual = 1.01262e-05, Final residual = 5.20588e-09, No Iterations 1
DICPCG:  Solving for p, Initial residual = 0.00203213, Final residual = 1.5837e-05, No Iterations 33
DICPCG:  Solving for p, Initial residual = 0.000720219, Final residual = 5.95531e-06, No Iterations 41
Moving mesh time step continuity errors : sum local = 1.1868e-07, global = -8.71842e-10, cumulative = -1.06345e-06
BiCGStab:  Solving for omega, Initial residual = 2.51562e-06, Final residual = 5.00172e-10, No Iterations 1
BiCGStab:  Solving for k, Initial residual = 1.25639e-06, Final residual = 2.48937e-10, No Iterations 1
PIMPLE: iteration 8
BiCGStab:  Solving for Ux, Initial residual = 6.87303e-05, Final residual = 2.2564e-08, No Iterations 1
BiCGStab:  Solving for Uy, Initial residual = 2.50187e-05, Final residual = 7.77035e-09, No Iterations 1
BiCGStab:  Solving for Uz, Initial residual = 7.04459e-06, Final residual = 3.51314e-09, No Iterations 1
DICPCG:  Solving for p, Initial residual = 0.00149539, Final residual = 1.18021e-05, No Iterations 33
DICPCG:  Solving for p, Initial residual = 0.000565501, Final residual = 4.58374e-06, No Iterations 41
Moving mesh time step continuity errors : sum local = 9.13514e-08, global = -4.43597e-10, cumulative = -1.06389e-06
BiCGStab:  Solving for omega, Initial residual = 9.49291e-07, Final residual = 9.49291e-07, No Iterations 0
BiCGStab:  Solving for k, Initial residual = 4.86638e-07, Final residual = 4.86638e-07, No Iterations 0
PIMPLE: iteration 9
BiCGStab:  Solving for Ux, Initial residual = 6.78714e-05, Final residual = 2.23957e-08, No Iterations 1
BiCGStab:  Solving for Uy, Initial residual = 2.42937e-05, Final residual = 7.57892e-09, No Iterations 1
BiCGStab:  Solving for Uz, Initial residual = 4.97978e-06, Final residual = 2.39706e-09, No Iterations 1
DICPCG:  Solving for p, Initial residual = 0.00111095, Final residual = 1.09705e-05, No Iterations 32
DICPCG:  Solving for p, Initial residual = 0.000446892, Final residual = 3.6455e-06, No Iterations 41
Moving mesh time step continuity errors : sum local = 7.26561e-08, global = -3.12987e-10, cumulative = -1.06421e-06
BiCGStab:  Solving for omega, Initial residual = 9.83563e-07, Final residual = 9.83563e-07, No Iterations 0
BiCGStab:  Solving for k, Initial residual = 4.90085e-07, Final residual = 4.90085e-07, No Iterations 0
PIMPLE: iteration 10
BiCGStab:  Solving for Ux, Initial residual = 6.72791e-05, Final residual = 2.22469e-08, No Iterations 1
BiCGStab:  Solving for Uy, Initial residual = 2.38047e-05, Final residual = 7.49694e-09, No Iterations 1
BiCGStab:  Solving for Uz, Initial residual = 3.56507e-06, Final residual = 1.65578e-09, No Iterations 1
DICPCG:  Solving for p, Initial residual = 0.000835966, Final residual = 8.17553e-06, No Iterations 19
DICPCG:  Solving for p, Initial residual = 0.000351854, Final residual = 2.82221e-06, No Iterations 41
Moving mesh time step continuity errors : sum local = 5.62452e-08, global = 4.49375e-10, cumulative = -1.06376e-06
BiCGStab:  Solving for omega, Initial residual = 1.02006e-06, Final residual = 1.98473e-10, No Iterations 1
BiCGStab:  Solving for k, Initial residual = 4.98129e-07, Final residual = 4.98129e-07, No Iterations 0
ExecutionTime = 198.52 s  ClockTime = 198 s

Courant Number mean: 0.0593588 max: 0.399796 velocity magnitude: 1.61702
Time = 0.62825

volume continuity errors : volume = 0.00198438, max error = 2.75285e-12, sum local = 3.8214e-16, global = -2.2878e-19
Courant Number mean: 0.0698103 max: 0.399796 velocity magnitude: 1.63067
PIMPLE: iteration 1
BiCGStab:  Solving for Ux, Initial residual = 0.00524633, Final residual = 1.76141e-06, No Iterations 1
BiCGStab:  Solving for Uy, Initial residual = 0.00298454, Final residual = 9.2546e-07, No Iterations 1
BiCGStab:  Solving for Uz, Initial residual = 0.00900774, Final residual = 2.60879e-06, No Iterations 1
DICPCG:  Solving for p, Initial residual = 0.0122348, Final residual = 0.000111943, No Iterations 40
DICPCG:  Solving for p, Initial residual = 0.00297393, Final residual = 2.94416e-05, No Iterations 13
Moving mesh time step continuity errors : sum local = 5.92889e-07, global = -8.72636e-08, cumulative = -1.15102e-06
BiCGStab:  Solving for omega, Initial residual = 0.00106564, Final residual = 2.16384e-07, No Iterations 1
BiCGStab:  Solving for k, Initial residual = 0.000393869, Final residual = 6.15109e-08, No Iterations 1
PIMPLE: iteration 2
BiCGStab:  Solving for Ux, Initial residual = 0.000475502, Final residual = 2.66506e-07, No Iterations 1
BiCGStab:  Solving for Uy, Initial residual = 0.00028632, Final residual = 1.08163e-07, No Iterations 1
BiCGStab:  Solving for Uz, Initial residual = 0.00090535, Final residual = 5.97295e-07, No Iterations 1
DICPCG:  Solving for p, Initial residual = 0.0102437, Final residual = 8.92655e-05, No Iterations 41
DICPCG:  Solving for p, Initial residual = 0.00268858, Final residual = 2.6594e-05, No Iterations 18
Moving mesh time step continuity errors : sum local = 5.36254e-07, global = -4.33144e-08, cumulative = -1.19434e-06
BiCGStab:  Solving for omega, Initial residual = 0.000390981, Final residual = 7.97476e-08, No Iterations 1
BiCGStab:  Solving for k, Initial residual = 0.000150208, Final residual = 2.54012e-08, No Iterations 1
PIMPLE: iteration 3
BiCGStab:  Solving for Ux, Initial residual = 5.95738e-05, Final residual = 2.9557e-08, No Iterations 1
BiCGStab:  Solving for Uy, Initial residual = 4.17409e-05, Final residual = 1.29731e-08, No Iterations 1
BiCGStab:  Solving for Uz, Initial residual = 0.000139684, Final residual = 6.79276e-08, No Iterations 1
DICPCG:  Solving for p, Initial residual = 0.00779852, Final residual = 6.06313e-05, No Iterations 36
DICPCG:  Solving for p, Initial residual = 0.002154, Final residual = 2.0126e-05, No Iterations 19
Moving mesh time step continuity errors : sum local = 4.05832e-07, global = -1.35291e-08, cumulative = -1.20787e-06
BiCGStab:  Solving for omega, Initial residual = 0.00014338, Final residual = 2.94808e-08, No Iterations 1
BiCGStab:  Solving for k, Initial residual = 5.76736e-05, Final residual = 1.0356e-08, No Iterations 1
PIMPLE: iteration 4
BiCGStab:  Solving for Ux, Initial residual = 1.80586e-05, Final residual = 5.6858e-09, No Iterations 1
BiCGStab:  Solving for Uy, Initial residual = 1.55301e-05, Final residual = 6.10866e-09, No Iterations 1
BiCGStab:  Solving for Uz, Initial residual = 4.79312e-05, Final residual = 2.2874e-08, No Iterations 1
DICPCG:  Solving for p, Initial residual = 0.00560791, Final residual = 4.91815e-05, No Iterations 41
DICPCG:  Solving for p, Initial residual = 0.00165607, Final residual = 1.60002e-05, No Iterations 19
Moving mesh time step continuity errors : sum local = 3.22604e-07, global = -3.06639e-08, cumulative = -1.23853e-06
BiCGStab:  Solving for omega, Initial residual = 5.24489e-05, Final residual = 1.08877e-08, No Iterations 1
BiCGStab:  Solving for k, Initial residual = 2.22154e-05, Final residual = 4.1518e-09, No Iterations 1
PIMPLE: iteration 5
BiCGStab:  Solving for Ux, Initial residual = 1.21382e-05, Final residual = 4.54363e-09, No Iterations 1
BiCGStab:  Solving for Uy, Initial residual = 1.03377e-05, Final residual = 4.18197e-09, No Iterations 1
BiCGStab:  Solving for Uz, Initial residual = 2.79398e-05, Final residual = 1.41791e-08, No Iterations 1
DICPCG:  Solving for p, Initial residual = 0.00403453, Final residual = 3.74605e-05, No Iterations 41
DICPCG:  Solving for p, Initial residual = 0.00127732, Final residual = 1.24496e-05, No Iterations 13
Moving mesh time step continuity errors : sum local = 2.50998e-07, global = -5.67623e-08, cumulative = -1.29529e-06
BiCGStab:  Solving for omega, Initial residual = 1.91764e-05, Final residual = 3.99227e-09, No Iterations 1
BiCGStab:  Solving for k, Initial residual = 8.55526e-06, Final residual = 1.64621e-09, No Iterations 1
PIMPLE: iteration 6
BiCGStab:  Solving for Ux, Initial residual = 8.98318e-06, Final residual = 3.25464e-09, No Iterations 1
BiCGStab:  Solving for Uy, Initial residual = 7.11555e-06, Final residual = 2.62833e-09, No Iterations 1
BiCGStab:  Solving for Uz, Initial residual = 1.89018e-05, Final residual = 9.43018e-09, No Iterations 1
DICPCG:  Solving for p, Initial residual = 0.00291764, Final residual = 2.44318e-05, No Iterations 41
DICPCG:  Solving for p, Initial residual = 0.000987498, Final residual = 9.71131e-06, No Iterations 13
Moving mesh time step continuity errors : sum local = 1.95786e-07, global = -5.31887e-08, cumulative = -1.34848e-06
BiCGStab:  Solving for omega, Initial residual = 6.98479e-06, Final residual = 1.44005e-09, No Iterations 1
BiCGStab:  Solving for k, Initial residual = 3.29332e-06, Final residual = 6.46264e-10, No Iterations 1
PIMPLE: iteration 7
BiCGStab:  Solving for Ux, Initial residual = 6.82748e-06, Final residual = 2.46662e-09, No Iterations 1
BiCGStab:  Solving for Uy, Initial residual = 4.99189e-06, Final residual = 1.66914e-09, No Iterations 1
BiCGStab:  Solving for Uz, Initial residual = 1.29354e-05, Final residual = 6.39492e-09, No Iterations 1
DICPCG:  Solving for p, Initial residual = 0.00213261, Final residual = 1.58358e-05, No Iterations 41
DICPCG:  Solving for p, Initial residual = 0.000770032, Final residual = 7.58095e-06, No Iterations 20
Moving mesh time step continuity errors : sum local = 1.5284e-07, global = -3.14267e-08, cumulative = -1.37991e-06
BiCGStab:  Solving for omega, Initial residual = 2.57584e-06, Final residual = 5.1986e-10, No Iterations 1
BiCGStab:  Solving for k, Initial residual = 1.27134e-06, Final residual = 2.51483e-10, No Iterations 1
PIMPLE: iteration 8
BiCGStab:  Solving for Ux, Initial residual = 5.36675e-06, Final residual = 1.77415e-09, No Iterations 1
BiCGStab:  Solving for Uy, Initial residual = 3.65094e-06, Final residual = 1.09689e-09, No Iterations 1
BiCGStab:  Solving for Uz, Initial residual = 9.03015e-06, Final residual = 4.37115e-09, No Iterations 1
DICPCG:  Solving for p, Initial residual = 0.00158199, Final residual = 1.54888e-05, No Iterations 40
DICPCG:  Solving for p, Initial residual = 0.000610914, Final residual = 5.60766e-06, No Iterations 24
Moving mesh time step continuity errors : sum local = 1.13061e-07, global = -2.17804e-08, cumulative = -1.40169e-06
BiCGStab:  Solving for omega, Initial residual = 9.81975e-07, Final residual = 9.81975e-07, No Iterations 0
BiCGStab:  Solving for k, Initial residual = 4.9599e-07, Final residual = 4.9599e-07, No Iterations 0
PIMPLE: iteration 9
BiCGStab:  Solving for Ux, Initial residual = 4.37394e-06, Final residual = 1.40429e-09, No Iterations 1
BiCGStab:  Solving for Uy, Initial residual = 2.80095e-06, Final residual = 8.2038e-10, No Iterations 1
BiCGStab:  Solving for Uz, Initial residual = 6.77045e-06, Final residual = 3.00166e-09, No Iterations 1
DICPCG:  Solving for p, Initial residual = 0.00119138, Final residual = 8.49326e-06, No Iterations 41
DICPCG:  Solving for p, Initial residual = 0.000490889, Final residual = 4.44247e-06, No Iterations 25
Moving mesh time step continuity errors : sum local = 8.95729e-08, global = -1.83864e-08, cumulative = -1.42007e-06
BiCGStab:  Solving for omega, Initial residual = 1.02926e-06, Final residual = 1.96697e-10, No Iterations 1
BiCGStab:  Solving for k, Initial residual = 5.03156e-07, Final residual = 5.03156e-07, No Iterations 0
PIMPLE: iteration 10
BiCGStab:  Solving for Ux, Initial residual = 3.72073e-06, Final residual = 1.22545e-09, No Iterations 1
BiCGStab:  Solving for Uy, Initial residual = 2.23397e-06, Final residual = 6.91937e-10, No Iterations 1
BiCGStab:  Solving for Uz, Initial residual = 4.89686e-06, Final residual = 2.29224e-09, No Iterations 1
DICPCG:  Solving for p, Initial residual = 0.00091242, Final residual = 6.73509e-06, No Iterations 41
DICPCG:  Solving for p, Initial residual = 0.000400377, Final residual = 3.95078e-06, No Iterations 26
Moving mesh time step continuity errors : sum local = 7.96642e-08, global = -1.51311e-08, cumulative = -1.4352e-06
BiCGStab:  Solving for omega, Initial residual = 4.26792e-07, Final residual = 4.26792e-07, No Iterations 0
BiCGStab:  Solving for k, Initial residual = 5.14507e-07, Final residual = 5.14507e-07, No Iterations 0
ExecutionTime = 199.06 s  ClockTime = 199 s

End

